<routes>
                <vType id="car" accel="1.0" decel="4.5" sigma="0.5" length="3.0" minGap="2.5" maxSpeed="20.0" guiShape="passenger" />
                <vType id="bus/city" accel="0.9" decel="4.5" sigma="0.5" length="5.0" minGap="2.5" maxSpeed="20.0" guiShape="bus" color="1,0,0"/>
                <vType id="motorcycle" accel="1.0" decel="4.5" sigma="0.5" length="2.0" minGap="4.0" maxSpeed="20.0" guiShape="motorcycle" color="0.5,0.5,1"/>
                
                <route id="S_N" edges="BC TC" />
                <route id="S_W" edges="BC TL" />
                <route id="S_E" edges="BC BR" />
                <route id="W_E" edges="BL BR" />
                <route id="E_N" edges="TR TC" />
                <route id="E_W" edges="TR TL" />
    <vehicle id="BL_BR_0" type="bus/city" route="W_E" depart="1" departLane="random" departSpeed="10.0" />
    <vehicle id="BC_TC_1" type="car" route="S_N" depart="8" departLane="random" departSpeed="10.0" />
    <vehicle id="BL_BR_2" type="bus/city" route="W_E" depart="17" departLane="random" departSpeed="10.0" />
    <vehicle id="TR_TL_3" type="motorcycle" route="E_W" depart="20" departLane="random" departSpeed="10.0" />
    <vehicle id="TR_TL_4" type="bus/city" route="E_W" depart="26" departLane="random" departSpeed="10.0" />
    <vehicle id="BL_BR_5" type="car" route="W_E" depart="26" departLane="random" departSpeed="10.0" />
    <vehicle id="BC_TL_6" type="car" route="S_W" depart="30" departLane="random" departSpeed="10.0" />
    <vehicle id="BL_BR_7" type="car" route="W_E" depart="35" departLane="random" departSpeed="10.0" />
    <vehicle id="BC_TC_8" type="motorcycle" route="S_N" depart="49" departLane="random" departSpeed="10.0" />
    <vehicle id="BL_BR_9" type="car" route="W_E" depart="52" departLane="random" departSpeed="10.0" />
    <vehicle id="TR_TL_10" type="motorcycle" route="E_W" depart="60" departLane="random" departSpeed="10.0" />
    <vehicle id="TR_TC_11" type="bus/city" route="E_N" depart="63" departLane="random" departSpeed="10.0" />
    <vehicle id="BL_BR_12" type="car" route="W_E" depart="66" departLane="random" departSpeed="10.0" />
    <vehicle id="BC_TC_13" type="motorcycle" route="S_N" depart="78" departLane="random" departSpeed="10.0" />
    <vehicle id="BC_TC_14" type="car" route="S_N" depart="91" departLane="random" departSpeed="10.0" />
    <vehicle id="TR_TL_15" type="bus/city" route="E_W" depart="96" departLane="random" departSpeed="10.0" />
    <vehicle id="TR_TL_16" type="bus/city" route="E_W" depart="96" departLane="random" departSpeed="10.0" />
    <vehicle id="BL_BR_17" type="motorcycle" route="W_E" depart="98" departLane="random" departSpeed="10.0" />
    <vehicle id="BC_TC_18" type="motorcycle" route="S_N" depart="99" departLane="random" departSpeed="10.0" />
    <vehicle id="TR_TC_19" type="car" route="E_N" depart="102" departLane="random" departSpeed="10.0" />
    <vehicle id="TR_TL_20" type="bus/city" route="E_W" depart="106" departLane="random" departSpeed="10.0" />
    <vehicle id="BC_TC_21" type="motorcycle" route="S_N" depart="112" departLane="random" departSpeed="10.0" />
    <vehicle id="TR_TL_22" type="car" route="E_W" depart="113" departLane="random" departSpeed="10.0" />
    <vehicle id="TR_TC_23" type="car" route="E_N" depart="114" departLane="random" departSpeed="10.0" />
    <vehicle id="BC_TC_24" type="motorcycle" route="S_N" depart="118" departLane="random" departSpeed="10.0" />
    <vehicle id="BC_TC_25" type="motorcycle" route="S_N" depart="121" departLane="random" departSpeed="10.0" />
    <vehicle id="BL_BR_26" type="car" route="W_E" depart="123" departLane="random" departSpeed="10.0" />
    <vehicle id="BC_BR_27" type="bus/city" route="S_E" depart="125" departLane="random" departSpeed="10.0" />
    <vehicle id="BC_TC_28" type="car" route="S_N" depart="129" departLane="random" departSpeed="10.0" />
    <vehicle id="BL_BR_29" type="motorcycle" route="W_E" depart="129" departLane="random" departSpeed="10.0" />
    <vehicle id="TR_TC_30" type="bus/city" route="E_N" depart="135" departLane="random" departSpeed="10.0" />
    <vehicle id="TR_TL_31" type="motorcycle" route="E_W" depart="135" departLane="random" departSpeed="10.0" />
    <vehicle id="TR_TL_32" type="bus/city" route="E_W" depart="142" departLane="random" departSpeed="10.0" />
    <vehicle id="TR_TL_33" type="car" route="E_W" depart="150" departLane="random" departSpeed="10.0" />
    <vehicle id="BC_TL_34" type="bus/city" route="S_W" depart="162" departLane="random" departSpeed="10.0" />
    <vehicle id="TR_TL_35" type="car" route="E_W" depart="164" departLane="random" departSpeed="10.0" />
    <vehicle id="BC_BR_36" type="car" route="S_E" depart="169" departLane="random" departSpeed="10.0" />
    <vehicle id="BL_BR_37" type="car" route="W_E" depart="175" departLane="random" departSpeed="10.0" />
    <vehicle id="BC_BR_38" type="car" route="S_E" depart="178" departLane="random" departSpeed="10.0" />
    <vehicle id="BC_TC_39" type="motorcycle" route="S_N" depart="187" departLane="random" departSpeed="10.0" />
    <vehicle id="BC_TC_40" type="bus/city" route="S_N" depart="187" departLane="random" departSpeed="10.0" />
    <vehicle id="BC_TC_41" type="motorcycle" route="S_N" depart="190" departLane="random" departSpeed="10.0" />
    <vehicle id="BL_BR_42" type="bus/city" route="W_E" depart="192" departLane="random" departSpeed="10.0" />
    <vehicle id="BC_BR_43" type="motorcycle" route="S_E" depart="193" departLane="random" departSpeed="10.0" />
    <vehicle id="BL_BR_44" type="motorcycle" route="W_E" depart="194" departLane="random" departSpeed="10.0" />
    <vehicle id="TR_TC_45" type="car" route="E_N" depart="209" departLane="random" departSpeed="10.0" />
    <vehicle id="BC_BR_46" type="motorcycle" route="S_E" depart="223" departLane="random" departSpeed="10.0" />
    <vehicle id="BC_BR_47" type="bus/city" route="S_E" depart="227" departLane="random" departSpeed="10.0" />
    <vehicle id="BC_TC_48" type="car" route="S_N" depart="233" departLane="random" departSpeed="10.0" />
    <vehicle id="BC_BR_49" type="motorcycle" route="S_E" depart="237" departLane="random" departSpeed="10.0" />
    <vehicle id="BC_TC_50" type="bus/city" route="S_N" depart="237" departLane="random" departSpeed="10.0" />
    <vehicle id="BL_BR_51" type="bus/city" route="W_E" depart="238" departLane="random" departSpeed="10.0" />
    <vehicle id="BC_TC_52" type="car" route="S_N" depart="241" departLane="random" departSpeed="10.0" />
    <vehicle id="BC_TC_53" type="motorcycle" route="S_N" depart="252" departLane="random" departSpeed="10.0" />
    <vehicle id="BC_TC_54" type="motorcycle" route="S_N" depart="254" departLane="random" departSpeed="10.0" />
    <vehicle id="BC_TC_55" type="motorcycle" route="S_N" depart="271" departLane="random" departSpeed="10.0" />
    <vehicle id="TR_TL_56" type="car" route="E_W" depart="272" departLane="random" departSpeed="10.0" />
    <vehicle id="BL_BR_57" type="car" route="W_E" depart="275" departLane="random" departSpeed="10.0" />
    <vehicle id="TR_TC_58" type="motorcycle" route="E_N" depart="278" departLane="random" departSpeed="10.0" />
    <vehicle id="BL_BR_59" type="motorcycle" route="W_E" depart="279" departLane="random" departSpeed="10.0" />
    <vehicle id="TR_TL_60" type="car" route="E_W" depart="282" departLane="random" departSpeed="10.0" />
    <vehicle id="BC_TC_61" type="car" route="S_N" depart="290" departLane="random" departSpeed="10.0" />
    <vehicle id="BC_BR_62" type="motorcycle" route="S_E" depart="293" departLane="random" departSpeed="10.0" />
    <vehicle id="BC_TC_63" type="car" route="S_N" depart="299" departLane="random" departSpeed="10.0" />
    <vehicle id="TR_TL_64" type="motorcycle" route="E_W" depart="299" departLane="random" departSpeed="10.0" />
    <vehicle id="BC_BR_65" type="motorcycle" route="S_E" depart="312" departLane="random" departSpeed="10.0" />
    <vehicle id="BC_BR_66" type="car" route="S_E" depart="321" departLane="random" departSpeed="10.0" />
    <vehicle id="TR_TC_67" type="motorcycle" route="E_N" depart="325" departLane="random" departSpeed="10.0" />
    <vehicle id="BC_BR_68" type="bus/city" route="S_E" depart="330" departLane="random" departSpeed="10.0" />
    <vehicle id="BC_TC_69" type="motorcycle" route="S_N" depart="333" departLane="random" departSpeed="10.0" />
    <vehicle id="BC_TC_70" type="bus/city" route="S_N" depart="336" departLane="random" departSpeed="10.0" />
    <vehicle id="BC_TC_71" type="motorcycle" route="S_N" depart="339" departLane="random" departSpeed="10.0" />
    <vehicle id="BC_TL_72" type="car" route="S_W" depart="347" departLane="random" departSpeed="10.0" />
    <vehicle id="BC_TC_73" type="car" route="S_N" depart="347" departLane="random" departSpeed="10.0" />
    <vehicle id="BC_TC_74" type="motorcycle" route="S_N" depart="349" departLane="random" departSpeed="10.0" />
    <vehicle id="BL_BR_75" type="car" route="W_E" depart="355" departLane="random" departSpeed="10.0" />
    <vehicle id="BC_TC_76" type="bus/city" route="S_N" depart="363" departLane="random" departSpeed="10.0" />
    <vehicle id="BC_TC_77" type="motorcycle" route="S_N" depart="364" departLane="random" departSpeed="10.0" />
    <vehicle id="BC_TL_78" type="car" route="S_W" depart="376" departLane="random" departSpeed="10.0" />
    <vehicle id="TR_TL_79" type="car" route="E_W" depart="381" departLane="random" departSpeed="10.0" />
    <vehicle id="BC_BR_80" type="motorcycle" route="S_E" depart="385" departLane="random" departSpeed="10.0" />
    <vehicle id="BL_BR_81" type="bus/city" route="W_E" depart="387" departLane="random" departSpeed="10.0" />
    <vehicle id="BL_BR_82" type="car" route="W_E" depart="387" departLane="random" departSpeed="10.0" />
    <vehicle id="BL_BR_83" type="bus/city" route="W_E" depart="389" departLane="random" departSpeed="10.0" />
    <vehicle id="BL_BR_84" type="car" route="W_E" depart="389" departLane="random" departSpeed="10.0" />
    <vehicle id="TR_TC_85" type="bus/city" route="E_N" depart="396" departLane="random" departSpeed="10.0" />
    <vehicle id="BL_BR_86" type="motorcycle" route="W_E" depart="403" departLane="random" departSpeed="10.0" />
    <vehicle id="BC_TC_87" type="bus/city" route="S_N" depart="425" departLane="random" departSpeed="10.0" />
    <vehicle id="TR_TC_88" type="bus/city" route="E_N" depart="426" departLane="random" departSpeed="10.0" />
    <vehicle id="TR_TL_89" type="car" route="E_W" depart="443" departLane="random" departSpeed="10.0" />
    <vehicle id="BC_BR_90" type="motorcycle" route="S_E" depart="445" departLane="random" departSpeed="10.0" />
    <vehicle id="BL_BR_91" type="bus/city" route="W_E" depart="450" departLane="random" departSpeed="10.0" />
    <vehicle id="BL_BR_92" type="motorcycle" route="W_E" depart="452" departLane="random" departSpeed="10.0" />
    <vehicle id="BL_BR_93" type="motorcycle" route="W_E" depart="453" departLane="random" departSpeed="10.0" />
    <vehicle id="TR_TC_94" type="motorcycle" route="E_N" depart="460" departLane="random" departSpeed="10.0" />
    <vehicle id="BC_TL_95" type="motorcycle" route="S_W" depart="466" departLane="random" departSpeed="10.0" />
    <vehicle id="TR_TC_96" type="motorcycle" route="E_N" depart="473" departLane="random" departSpeed="10.0" />
    <vehicle id="BC_BR_97" type="car" route="S_E" depart="479" departLane="random" departSpeed="10.0" />
    <vehicle id="BL_BR_98" type="motorcycle" route="W_E" depart="480" departLane="random" departSpeed="10.0" />
    <vehicle id="BL_BR_99" type="car" route="W_E" depart="480" departLane="random" departSpeed="10.0" />
    <vehicle id="TR_TL_100" type="motorcycle" route="E_W" depart="497" departLane="random" departSpeed="10.0" />
    <vehicle id="BL_BR_101" type="bus/city" route="W_E" depart="502" departLane="random" departSpeed="10.0" />
    <vehicle id="TR_TL_102" type="car" route="E_W" depart="503" departLane="random" departSpeed="10.0" />
    <vehicle id="BL_BR_103" type="car" route="W_E" depart="505" departLane="random" departSpeed="10.0" />
    <vehicle id="BL_BR_104" type="bus/city" route="W_E" depart="508" departLane="random" departSpeed="10.0" />
    <vehicle id="TR_TL_105" type="motorcycle" route="E_W" depart="522" departLane="random" departSpeed="10.0" />
    <vehicle id="TR_TL_106" type="car" route="E_W" depart="524" departLane="random" departSpeed="10.0" />
    <vehicle id="BC_TL_107" type="bus/city" route="S_W" depart="531" departLane="random" departSpeed="10.0" />
    <vehicle id="TR_TL_108" type="car" route="E_W" depart="542" departLane="random" departSpeed="10.0" />
    <vehicle id="BL_BR_109" type="car" route="W_E" depart="542" departLane="random" departSpeed="10.0" />
    <vehicle id="BL_BR_110" type="car" route="W_E" depart="543" departLane="random" departSpeed="10.0" />
    <vehicle id="BL_BR_111" type="bus/city" route="W_E" depart="544" departLane="random" departSpeed="10.0" />
    <vehicle id="BC_TL_112" type="motorcycle" route="S_W" depart="546" departLane="random" departSpeed="10.0" />
    <vehicle id="TR_TL_113" type="car" route="E_W" depart="550" departLane="random" departSpeed="10.0" />
    <vehicle id="BL_BR_114" type="bus/city" route="W_E" depart="570" departLane="random" departSpeed="10.0" />
    <vehicle id="BC_TC_115" type="motorcycle" route="S_N" depart="572" departLane="random" departSpeed="10.0" />
    <vehicle id="TR_TC_116" type="car" route="E_N" depart="579" departLane="random" departSpeed="10.0" />
    <vehicle id="BC_TC_117" type="motorcycle" route="S_N" depart="584" departLane="random" departSpeed="10.0" />
    <vehicle id="TR_TL_118" type="bus/city" route="E_W" depart="588" departLane="random" departSpeed="10.0" />
    <vehicle id="TR_TC_119" type="car" route="E_N" depart="590" departLane="random" departSpeed="10.0" />
    <vehicle id="BC_TL_120" type="motorcycle" route="S_W" depart="591" departLane="random" departSpeed="10.0" />
    <vehicle id="BC_BR_121" type="car" route="S_E" depart="595" departLane="random" departSpeed="10.0" />
    <vehicle id="TR_TC_122" type="car" route="E_N" depart="597" departLane="random" departSpeed="10.0" />
    <vehicle id="BL_BR_123" type="car" route="W_E" depart="599" departLane="random" departSpeed="10.0" />
    <vehicle id="TR_TL_124" type="car" route="E_W" depart="605" departLane="random" departSpeed="10.0" />
    <vehicle id="BC_BR_125" type="car" route="S_E" depart="606" departLane="random" departSpeed="10.0" />
    <vehicle id="TR_TL_126" type="motorcycle" route="E_W" depart="607" departLane="random" departSpeed="10.0" />
    <vehicle id="BL_BR_127" type="bus/city" route="W_E" depart="609" departLane="random" departSpeed="10.0" />
    <vehicle id="TR_TL_128" type="car" route="E_W" depart="614" departLane="random" departSpeed="10.0" />
    <vehicle id="BC_TC_129" type="motorcycle" route="S_N" depart="628" departLane="random" departSpeed="10.0" />
    <vehicle id="TR_TC_130" type="car" route="E_N" depart="641" departLane="random" departSpeed="10.0" />
    <vehicle id="BC_TC_131" type="car" route="S_N" depart="641" departLane="random" departSpeed="10.0" />
    <vehicle id="BL_BR_132" type="motorcycle" route="W_E" depart="651" departLane="random" departSpeed="10.0" />
    <vehicle id="TR_TC_133" type="bus/city" route="E_N" depart="653" departLane="random" departSpeed="10.0" />
    <vehicle id="BC_TC_134" type="bus/city" route="S_N" depart="660" departLane="random" departSpeed="10.0" />
    <vehicle id="BC_BR_135" type="bus/city" route="S_E" depart="663" departLane="random" departSpeed="10.0" />
    <vehicle id="BC_TL_136" type="bus/city" route="S_W" depart="664" departLane="random" departSpeed="10.0" />
    <vehicle id="TR_TC_137" type="car" route="E_N" depart="666" departLane="random" departSpeed="10.0" />
    <vehicle id="TR_TC_138" type="bus/city" route="E_N" depart="667" departLane="random" departSpeed="10.0" />
    <vehicle id="TR_TC_139" type="bus/city" route="E_N" depart="668" departLane="random" departSpeed="10.0" />
    <vehicle id="BL_BR_140" type="bus/city" route="W_E" depart="671" departLane="random" departSpeed="10.0" />
    <vehicle id="BL_BR_141" type="bus/city" route="W_E" depart="676" departLane="random" departSpeed="10.0" />
    <vehicle id="BC_BR_142" type="bus/city" route="S_E" depart="676" departLane="random" departSpeed="10.0" />
    <vehicle id="TR_TL_143" type="bus/city" route="E_W" depart="682" departLane="random" departSpeed="10.0" />
    <vehicle id="TR_TL_144" type="car" route="E_W" depart="686" departLane="random" departSpeed="10.0" />
    <vehicle id="BL_BR_145" type="bus/city" route="W_E" depart="692" departLane="random" departSpeed="10.0" />
    <vehicle id="TR_TC_146" type="car" route="E_N" depart="692" departLane="random" departSpeed="10.0" />
    <vehicle id="TR_TC_147" type="motorcycle" route="E_N" depart="699" departLane="random" departSpeed="10.0" />
    <vehicle id="BC_TC_148" type="motorcycle" route="S_N" depart="700" departLane="random" departSpeed="10.0" />
    <vehicle id="TR_TL_149" type="motorcycle" route="E_W" depart="712" departLane="random" departSpeed="10.0" />
    <vehicle id="TR_TL_150" type="car" route="E_W" depart="714" departLane="random" departSpeed="10.0" />
    <vehicle id="BC_TC_151" type="motorcycle" route="S_N" depart="734" departLane="random" departSpeed="10.0" />
    <vehicle id="BC_TL_152" type="motorcycle" route="S_W" depart="739" departLane="random" departSpeed="10.0" />
    <vehicle id="TR_TL_153" type="motorcycle" route="E_W" depart="748" departLane="random" departSpeed="10.0" />
    <vehicle id="TR_TL_154" type="car" route="E_W" depart="748" departLane="random" departSpeed="10.0" />
    <vehicle id="TR_TC_155" type="motorcycle" route="E_N" depart="751" departLane="random" departSpeed="10.0" />
    <vehicle id="BC_TC_156" type="motorcycle" route="S_N" depart="753" departLane="random" departSpeed="10.0" />
    <vehicle id="TR_TC_157" type="car" route="E_N" depart="761" departLane="random" departSpeed="10.0" />
    <vehicle id="BC_TC_158" type="motorcycle" route="S_N" depart="767" departLane="random" departSpeed="10.0" />
    <vehicle id="TR_TC_159" type="bus/city" route="E_N" depart="768" departLane="random" departSpeed="10.0" />
    <vehicle id="TR_TC_160" type="car" route="E_N" depart="770" departLane="random" departSpeed="10.0" />
    <vehicle id="TR_TL_161" type="car" route="E_W" depart="772" departLane="random" departSpeed="10.0" />
    <vehicle id="BC_TC_162" type="car" route="S_N" depart="773" departLane="random" departSpeed="10.0" />
    <vehicle id="BL_BR_163" type="bus/city" route="W_E" depart="774" departLane="random" departSpeed="10.0" />
    <vehicle id="BC_BR_164" type="car" route="S_E" depart="788" departLane="random" departSpeed="10.0" />
    <vehicle id="TR_TL_165" type="car" route="E_W" depart="789" departLane="random" departSpeed="10.0" />
    <vehicle id="BC_TC_166" type="bus/city" route="S_N" depart="792" departLane="random" departSpeed="10.0" />
    <vehicle id="BC_TC_167" type="car" route="S_N" depart="796" departLane="random" departSpeed="10.0" />
    <vehicle id="BC_TC_168" type="car" route="S_N" depart="804" departLane="random" departSpeed="10.0" />
    <vehicle id="BL_BR_169" type="motorcycle" route="W_E" depart="807" departLane="random" departSpeed="10.0" />
    <vehicle id="TR_TC_170" type="car" route="E_N" depart="817" departLane="random" departSpeed="10.0" />
    <vehicle id="BL_BR_171" type="bus/city" route="W_E" depart="821" departLane="random" departSpeed="10.0" />
    <vehicle id="TR_TL_172" type="motorcycle" route="E_W" depart="825" departLane="random" departSpeed="10.0" />
    <vehicle id="BC_TL_173" type="car" route="S_W" depart="832" departLane="random" departSpeed="10.0" />
    <vehicle id="TR_TL_174" type="car" route="E_W" depart="841" departLane="random" departSpeed="10.0" />
    <vehicle id="BL_BR_175" type="motorcycle" route="W_E" depart="846" departLane="random" departSpeed="10.0" />
    <vehicle id="BL_BR_176" type="motorcycle" route="W_E" depart="858" departLane="random" departSpeed="10.0" />
    <vehicle id="BC_TL_177" type="bus/city" route="S_W" depart="860" departLane="random" departSpeed="10.0" />
    <vehicle id="BL_BR_178" type="car" route="W_E" depart="863" departLane="random" departSpeed="10.0" />
    <vehicle id="BL_BR_179" type="car" route="W_E" depart="864" departLane="random" departSpeed="10.0" />
    <vehicle id="TR_TC_180" type="car" route="E_N" depart="870" departLane="random" departSpeed="10.0" />
    <vehicle id="BC_TL_181" type="motorcycle" route="S_W" depart="876" departLane="random" departSpeed="10.0" />
    <vehicle id="TR_TL_182" type="bus/city" route="E_W" depart="876" departLane="random" departSpeed="10.0" />
    <vehicle id="TR_TL_183" type="motorcycle" route="E_W" depart="876" departLane="random" departSpeed="10.0" />
    <vehicle id="BL_BR_184" type="car" route="W_E" depart="880" departLane="random" departSpeed="10.0" />
    <vehicle id="TR_TC_185" type="bus/city" route="E_N" depart="884" departLane="random" departSpeed="10.0" />
    <vehicle id="BC_BR_186" type="car" route="S_E" depart="885" departLane="random" departSpeed="10.0" />
    <vehicle id="BC_TC_187" type="motorcycle" route="S_N" depart="890" departLane="random" departSpeed="10.0" />
    <vehicle id="BL_BR_188" type="bus/city" route="W_E" depart="891" departLane="random" departSpeed="10.0" />
    <vehicle id="BC_TL_189" type="car" route="S_W" depart="897" departLane="random" departSpeed="10.0" />
    <vehicle id="TR_TC_190" type="motorcycle" route="E_N" depart="898" departLane="random" departSpeed="10.0" />
    <vehicle id="BL_BR_191" type="car" route="W_E" depart="899" departLane="random" departSpeed="10.0" />
    <vehicle id="BC_TC_192" type="car" route="S_N" depart="903" departLane="random" departSpeed="10.0" />
    <vehicle id="BC_TC_193" type="bus/city" route="S_N" depart="906" departLane="random" departSpeed="10.0" />
    <vehicle id="BC_TC_194" type="car" route="S_N" depart="910" departLane="random" departSpeed="10.0" />
    <vehicle id="TR_TC_195" type="motorcycle" route="E_N" depart="913" departLane="random" departSpeed="10.0" />
    <vehicle id="TR_TL_196" type="motorcycle" route="E_W" depart="917" departLane="random" departSpeed="10.0" />
    <vehicle id="BC_TL_197" type="car" route="S_W" depart="925" departLane="random" departSpeed="10.0" />
    <vehicle id="TR_TL_198" type="bus/city" route="E_W" depart="931" departLane="random" departSpeed="10.0" />
    <vehicle id="BC_BR_199" type="motorcycle" route="S_E" depart="932" departLane="random" departSpeed="10.0" />
    <vehicle id="TR_TL_200" type="bus/city" route="E_W" depart="933" departLane="random" departSpeed="10.0" />
    <vehicle id="TR_TL_201" type="motorcycle" route="E_W" depart="938" departLane="random" departSpeed="10.0" />
    <vehicle id="TR_TL_202" type="motorcycle" route="E_W" depart="940" departLane="random" departSpeed="10.0" />
    <vehicle id="BC_TL_203" type="bus/city" route="S_W" depart="958" departLane="random" departSpeed="10.0" />
    <vehicle id="BL_BR_204" type="bus/city" route="W_E" depart="960" departLane="random" departSpeed="10.0" />
    <vehicle id="TR_TL_205" type="car" route="E_W" depart="960" departLane="random" departSpeed="10.0" />
    <vehicle id="BC_TC_206" type="bus/city" route="S_N" depart="962" departLane="random" departSpeed="10.0" />
    <vehicle id="BC_TL_207" type="motorcycle" route="S_W" depart="977" departLane="random" departSpeed="10.0" />
    <vehicle id="BC_BR_208" type="motorcycle" route="S_E" depart="979" departLane="random" departSpeed="10.0" />
    <vehicle id="BC_TC_209" type="car" route="S_N" depart="980" departLane="random" departSpeed="10.0" />
    <vehicle id="BL_BR_210" type="car" route="W_E" depart="980" departLane="random" departSpeed="10.0" />
    <vehicle id="BL_BR_211" type="bus/city" route="W_E" depart="980" departLane="random" departSpeed="10.0" />
    <vehicle id="BC_TL_212" type="motorcycle" route="S_W" depart="986" departLane="random" departSpeed="10.0" />
    <vehicle id="TR_TL_213" type="car" route="E_W" depart="988" departLane="random" departSpeed="10.0" />
    <vehicle id="TR_TL_214" type="car" route="E_W" depart="992" departLane="random" departSpeed="10.0" />
    <vehicle id="BC_BR_215" type="motorcycle" route="S_E" depart="1000" departLane="random" departSpeed="10.0" />
    <vehicle id="BC_BR_216" type="bus/city" route="S_E" depart="1006" departLane="random" departSpeed="10.0" />
    <vehicle id="TR_TL_217" type="car" route="E_W" depart="1009" departLane="random" departSpeed="10.0" />
    <vehicle id="BL_BR_218" type="bus/city" route="W_E" depart="1011" departLane="random" departSpeed="10.0" />
    <vehicle id="BC_TC_219" type="car" route="S_N" depart="1012" departLane="random" departSpeed="10.0" />
    <vehicle id="TR_TC_220" type="car" route="E_N" depart="1017" departLane="random" departSpeed="10.0" />
    <vehicle id="TR_TL_221" type="bus/city" route="E_W" depart="1018" departLane="random" departSpeed="10.0" />
    <vehicle id="BC_TC_222" type="bus/city" route="S_N" depart="1038" departLane="random" departSpeed="10.0" />
    <vehicle id="BC_BR_223" type="car" route="S_E" depart="1040" departLane="random" departSpeed="10.0" />
    <vehicle id="BL_BR_224" type="car" route="W_E" depart="1050" departLane="random" departSpeed="10.0" />
    <vehicle id="TR_TL_225" type="bus/city" route="E_W" depart="1056" departLane="random" departSpeed="10.0" />
    <vehicle id="BC_TC_226" type="bus/city" route="S_N" depart="1057" departLane="random" departSpeed="10.0" />
    <vehicle id="BC_TL_227" type="bus/city" route="S_W" depart="1064" departLane="random" departSpeed="10.0" />
    <vehicle id="TR_TL_228" type="car" route="E_W" depart="1065" departLane="random" departSpeed="10.0" />
    <vehicle id="BC_BR_229" type="motorcycle" route="S_E" depart="1065" departLane="random" departSpeed="10.0" />
    <vehicle id="TR_TL_230" type="car" route="E_W" depart="1066" departLane="random" departSpeed="10.0" />
    <vehicle id="BC_TC_231" type="car" route="S_N" depart="1074" departLane="random" departSpeed="10.0" />
    <vehicle id="BC_TC_232" type="motorcycle" route="S_N" depart="1077" departLane="random" departSpeed="10.0" />
    <vehicle id="BC_TC_233" type="motorcycle" route="S_N" depart="1078" departLane="random" departSpeed="10.0" />
    <vehicle id="BL_BR_234" type="car" route="W_E" depart="1081" departLane="random" departSpeed="10.0" />
    <vehicle id="TR_TL_235" type="car" route="E_W" depart="1082" departLane="random" departSpeed="10.0" />
    <vehicle id="BL_BR_236" type="bus/city" route="W_E" depart="1083" departLane="random" departSpeed="10.0" />
    <vehicle id="BL_BR_237" type="motorcycle" route="W_E" depart="1090" departLane="random" departSpeed="10.0" />
    <vehicle id="TR_TC_238" type="bus/city" route="E_N" depart="1096" departLane="random" departSpeed="10.0" />
    <vehicle id="BL_BR_239" type="car" route="W_E" depart="1097" departLane="random" departSpeed="10.0" />
    <vehicle id="TR_TL_240" type="motorcycle" route="E_W" depart="1104" departLane="random" departSpeed="10.0" />
    <vehicle id="BL_BR_241" type="bus/city" route="W_E" depart="1109" departLane="random" departSpeed="10.0" />
    <vehicle id="BC_TL_242" type="bus/city" route="S_W" depart="1110" departLane="random" departSpeed="10.0" />
    <vehicle id="TR_TL_243" type="bus/city" route="E_W" depart="1118" departLane="random" departSpeed="10.0" />
    <vehicle id="BC_BR_244" type="bus/city" route="S_E" depart="1129" departLane="random" departSpeed="10.0" />
    <vehicle id="BC_TL_245" type="car" route="S_W" depart="1137" departLane="random" departSpeed="10.0" />
    <vehicle id="BC_TC_246" type="bus/city" route="S_N" depart="1138" departLane="random" departSpeed="10.0" />
    <vehicle id="TR_TL_247" type="car" route="E_W" depart="1138" departLane="random" departSpeed="10.0" />
    <vehicle id="BC_TC_248" type="motorcycle" route="S_N" depart="1151" departLane="random" departSpeed="10.0" />
    <vehicle id="TR_TC_249" type="motorcycle" route="E_N" depart="1156" departLane="random" departSpeed="10.0" />
    <vehicle id="BC_TC_250" type="bus/city" route="S_N" depart="1162" departLane="random" departSpeed="10.0" />
    <vehicle id="TR_TL_251" type="car" route="E_W" depart="1170" departLane="random" departSpeed="10.0" />
    <vehicle id="BC_TC_252" type="car" route="S_N" depart="1170" departLane="random" departSpeed="10.0" />
    <vehicle id="TR_TL_253" type="car" route="E_W" depart="1178" departLane="random" departSpeed="10.0" />
    <vehicle id="TR_TL_254" type="car" route="E_W" depart="1189" departLane="random" departSpeed="10.0" />
    <vehicle id="BC_BR_255" type="car" route="S_E" depart="1190" departLane="random" departSpeed="10.0" />
    <vehicle id="TR_TC_256" type="car" route="E_N" depart="1192" departLane="random" departSpeed="10.0" />
    <vehicle id="TR_TL_257" type="car" route="E_W" depart="1193" departLane="random" departSpeed="10.0" />
    <vehicle id="BL_BR_258" type="car" route="W_E" depart="1194" departLane="random" departSpeed="10.0" />
    <vehicle id="TR_TL_259" type="bus/city" route="E_W" depart="1203" departLane="random" departSpeed="10.0" />
    <vehicle id="TR_TL_260" type="car" route="E_W" depart="1213" departLane="random" departSpeed="10.0" />
    <vehicle id="BC_TC_261" type="car" route="S_N" depart="1215" departLane="random" departSpeed="10.0" />
    <vehicle id="BC_TC_262" type="bus/city" route="S_N" depart="1237" departLane="random" departSpeed="10.0" />
    <vehicle id="TR_TL_263" type="bus/city" route="E_W" depart="1245" departLane="random" departSpeed="10.0" />
    <vehicle id="BC_TL_264" type="motorcycle" route="S_W" depart="1246" departLane="random" departSpeed="10.0" />
    <vehicle id="BC_TC_265" type="car" route="S_N" depart="1246" departLane="random" departSpeed="10.0" />
    <vehicle id="BC_TC_266" type="car" route="S_N" depart="1255" departLane="random" departSpeed="10.0" />