<routes>
                <vType id="car" accel="1.0" decel="4.5" sigma="0.5" length="5.0" minGap="2.5" maxSpeed="20.0" guiShape="passenger" />
                <vType id="bus/city" accel="0.9" decel="4.5" sigma="0.5" length="7.0" minGap="2.5" maxSpeed="20.0" guiShape="bus" color="1,0,0"/>
                <vType id="motorcycle" accel="1.0" decel="4.5" sigma="0.5" length="2.0" minGap="4.0" maxSpeed="20.0" guiShape="motorcycle" color="0.5,0.5,1"/>
        
                <route id="S_N" edges="BC TC" />
                <route id="S_W" edges="BC TL" />
                <route id="S_E" edges="BC BR" />
                <route id="W_E" edges="BL BR" />
                <route id="E_N" edges="TR TC" />
                <route id="E_W" edges="TR TL" />
    <vehicle id="BC_TC_0" type="bus/city" route="S_N" depart="4" departLane="random" departSpeed="10.0" />
    <vehicle id="BC_BR_1" type="motorcycle" route="S_E" depart="5" departLane="random" departSpeed="10.0" />
    <vehicle id="BL_BR_2" type="motorcycle" route="W_E" depart="6" departLane="random" departSpeed="10.0" />
    <vehicle id="BC_TC_3" type="motorcycle" route="S_N" depart="10" departLane="random" departSpeed="10.0" />
    <vehicle id="BC_TC_4" type="car" route="S_N" depart="10" departLane="random" departSpeed="10.0" />
    <vehicle id="BL_BR_5" type="car" route="W_E" depart="17" departLane="random" departSpeed="10.0" />
    <vehicle id="BC_TC_6" type="motorcycle" route="S_N" depart="35" departLane="random" departSpeed="10.0" />
    <vehicle id="BL_BR_7" type="bus/city" route="W_E" depart="56" departLane="random" departSpeed="10.0" />
    <vehicle id="BL_BR_8" type="car" route="W_E" depart="65" departLane="random" departSpeed="10.0" />
    <vehicle id="TR_TL_9" type="bus/city" route="E_W" depart="67" departLane="random" departSpeed="10.0" />
    <vehicle id="BL_BR_10" type="car" route="W_E" depart="78" departLane="random" departSpeed="10.0" />
    <vehicle id="TR_TL_11" type="car" route="E_W" depart="95" departLane="random" departSpeed="10.0" />
    <vehicle id="TR_TC_12" type="motorcycle" route="E_N" depart="99" departLane="random" departSpeed="10.0" />
    <vehicle id="BL_BR_13" type="bus/city" route="W_E" depart="115" departLane="random" departSpeed="10.0" />
    <vehicle id="TR_TL_14" type="car" route="E_W" depart="117" departLane="random" departSpeed="10.0" />
    <vehicle id="BC_BR_15" type="motorcycle" route="S_E" depart="118" departLane="random" departSpeed="10.0" />
    <vehicle id="BC_TC_16" type="motorcycle" route="S_N" depart="120" departLane="random" departSpeed="10.0" />
    <vehicle id="BL_BR_17" type="bus/city" route="W_E" depart="126" departLane="random" departSpeed="10.0" />
    <vehicle id="BC_TC_18" type="bus/city" route="S_N" depart="127" departLane="random" departSpeed="10.0" />
    <vehicle id="BL_BR_19" type="car" route="W_E" depart="128" departLane="random" departSpeed="10.0" />
    <vehicle id="TR_TL_20" type="motorcycle" route="E_W" depart="131" departLane="random" departSpeed="10.0" />
    <vehicle id="TR_TL_21" type="bus/city" route="E_W" depart="134" departLane="random" departSpeed="10.0" />
    <vehicle id="BC_TC_22" type="motorcycle" route="S_N" depart="138" departLane="random" departSpeed="10.0" />
    <vehicle id="BC_TC_23" type="bus/city" route="S_N" depart="144" departLane="random" departSpeed="10.0" />
    <vehicle id="BL_BR_24" type="car" route="W_E" depart="147" departLane="random" departSpeed="10.0" />
    <vehicle id="BC_TC_25" type="motorcycle" route="S_N" depart="155" departLane="random" departSpeed="10.0" />
    <vehicle id="BL_BR_26" type="bus/city" route="W_E" depart="161" departLane="random" departSpeed="10.0" />
    <vehicle id="TR_TC_27" type="motorcycle" route="E_N" depart="162" departLane="random" departSpeed="10.0" />
    <vehicle id="TR_TL_28" type="motorcycle" route="E_W" depart="190" departLane="random" departSpeed="10.0" />
    <vehicle id="BC_BR_29" type="bus/city" route="S_E" depart="191" departLane="random" departSpeed="10.0" />
    <vehicle id="BC_BR_30" type="car" route="S_E" depart="198" departLane="random" departSpeed="10.0" />
    <vehicle id="BC_TC_31" type="motorcycle" route="S_N" depart="198" departLane="random" departSpeed="10.0" />
    <vehicle id="BC_BR_32" type="motorcycle" route="S_E" depart="201" departLane="random" departSpeed="10.0" />
    <vehicle id="BL_BR_33" type="motorcycle" route="W_E" depart="202" departLane="random" departSpeed="10.0" />
    <vehicle id="BC_TC_34" type="car" route="S_N" depart="203" departLane="random" departSpeed="10.0" />
    <vehicle id="TR_TL_35" type="bus/city" route="E_W" depart="207" departLane="random" departSpeed="10.0" />
    <vehicle id="TR_TC_36" type="car" route="E_N" depart="224" departLane="random" departSpeed="10.0" />
    <vehicle id="BC_TC_37" type="bus/city" route="S_N" depart="225" departLane="random" departSpeed="10.0" />
    <vehicle id="BL_BR_38" type="car" route="W_E" depart="226" departLane="random" departSpeed="10.0" />
    <vehicle id="BL_BR_39" type="bus/city" route="W_E" depart="233" departLane="random" departSpeed="10.0" />
    <vehicle id="TR_TL_40" type="motorcycle" route="E_W" depart="236" departLane="random" departSpeed="10.0" />
    <vehicle id="BC_BR_41" type="car" route="S_E" depart="236" departLane="random" departSpeed="10.0" />
    <vehicle id="TR_TL_42" type="motorcycle" route="E_W" depart="242" departLane="random" departSpeed="10.0" />
    <vehicle id="TR_TL_43" type="car" route="E_W" depart="243" departLane="random" departSpeed="10.0" />
    <vehicle id="BL_BR_44" type="bus/city" route="W_E" depart="250" departLane="random" departSpeed="10.0" />
    <vehicle id="BL_BR_45" type="car" route="W_E" depart="254" departLane="random" departSpeed="10.0" />
    <vehicle id="TR_TL_46" type="bus/city" route="E_W" depart="256" departLane="random" departSpeed="10.0" />
    <vehicle id="BC_BR_47" type="bus/city" route="S_E" depart="261" departLane="random" departSpeed="10.0" />
    <vehicle id="TR_TC_48" type="bus/city" route="E_N" depart="263" departLane="random" departSpeed="10.0" />
    <vehicle id="TR_TL_49" type="bus/city" route="E_W" depart="281" departLane="random" departSpeed="10.0" />
    <vehicle id="BL_BR_50" type="bus/city" route="W_E" depart="302" departLane="random" departSpeed="10.0" />
    <vehicle id="BL_BR_51" type="car" route="W_E" depart="303" departLane="random" departSpeed="10.0" />
    <vehicle id="BC_TC_52" type="bus/city" route="S_N" depart="321" departLane="random" departSpeed="10.0" />
    <vehicle id="BL_BR_53" type="bus/city" route="W_E" depart="336" departLane="random" departSpeed="10.0" />
    <vehicle id="TR_TL_54" type="motorcycle" route="E_W" depart="338" departLane="random" departSpeed="10.0" />
    <vehicle id="BC_TL_55" type="bus/city" route="S_W" depart="346" departLane="random" departSpeed="10.0" />
    <vehicle id="TR_TL_56" type="motorcycle" route="E_W" depart="358" departLane="random" departSpeed="10.0" />
    <vehicle id="BC_TL_57" type="bus/city" route="S_W" depart="363" departLane="random" departSpeed="10.0" />
    <vehicle id="TR_TL_58" type="bus/city" route="E_W" depart="365" departLane="random" departSpeed="10.0" />
    <vehicle id="BC_TC_59" type="bus/city" route="S_N" depart="376" departLane="random" departSpeed="10.0" />
    <vehicle id="BC_TC_60" type="car" route="S_N" depart="380" departLane="random" departSpeed="10.0" />
    <vehicle id="BC_TC_61" type="car" route="S_N" depart="385" departLane="random" departSpeed="10.0" />
    <vehicle id="BC_TC_62" type="car" route="S_N" depart="389" departLane="random" departSpeed="10.0" />
    <vehicle id="TR_TL_63" type="motorcycle" route="E_W" depart="392" departLane="random" departSpeed="10.0" />
    <vehicle id="TR_TL_64" type="motorcycle" route="E_W" depart="396" departLane="random" departSpeed="10.0" />
    <vehicle id="TR_TL_65" type="car" route="E_W" depart="405" departLane="random" departSpeed="10.0" />
    <vehicle id="BC_TC_66" type="motorcycle" route="S_N" depart="413" departLane="random" departSpeed="10.0" />
    <vehicle id="BC_BR_67" type="car" route="S_E" depart="418" departLane="random" departSpeed="10.0" />
    <vehicle id="BC_BR_68" type="motorcycle" route="S_E" depart="420" departLane="random" departSpeed="10.0" />
    <vehicle id="BL_BR_69" type="bus/city" route="W_E" depart="456" departLane="random" departSpeed="10.0" />
    <vehicle id="BL_BR_70" type="car" route="W_E" depart="467" departLane="random" departSpeed="10.0" />
    <vehicle id="TR_TL_71" type="motorcycle" route="E_W" depart="468" departLane="random" departSpeed="10.0" />
    <vehicle id="BC_TC_72" type="motorcycle" route="S_N" depart="471" departLane="random" departSpeed="10.0" />
    <vehicle id="TR_TL_73" type="motorcycle" route="E_W" depart="475" departLane="random" departSpeed="10.0" />
    <vehicle id="BL_BR_74" type="motorcycle" route="W_E" depart="478" departLane="random" departSpeed="10.0" />
    <vehicle id="BL_BR_75" type="motorcycle" route="W_E" depart="489" departLane="random" departSpeed="10.0" />
    <vehicle id="BL_BR_76" type="bus/city" route="W_E" depart="493" departLane="random" departSpeed="10.0" />
    <vehicle id="TR_TL_77" type="motorcycle" route="E_W" depart="500" departLane="random" departSpeed="10.0" />
    <vehicle id="TR_TC_78" type="motorcycle" route="E_N" depart="503" departLane="random" departSpeed="10.0" />
    <vehicle id="BC_TL_79" type="motorcycle" route="S_W" depart="505" departLane="random" departSpeed="10.0" />
    <vehicle id="BL_BR_80" type="bus/city" route="W_E" depart="511" departLane="random" departSpeed="10.0" />
    <vehicle id="TR_TC_81" type="motorcycle" route="E_N" depart="511" departLane="random" departSpeed="10.0" />
    <vehicle id="BC_BR_82" type="car" route="S_E" depart="513" departLane="random" departSpeed="10.0" />
    <vehicle id="BC_TC_83" type="bus/city" route="S_N" depart="524" departLane="random" departSpeed="10.0" />
    <vehicle id="BC_TL_84" type="bus/city" route="S_W" depart="525" departLane="random" departSpeed="10.0" />
    <vehicle id="TR_TL_85" type="motorcycle" route="E_W" depart="526" departLane="random" departSpeed="10.0" />
    <vehicle id="BL_BR_86" type="motorcycle" route="W_E" depart="538" departLane="random" departSpeed="10.0" />
    <vehicle id="BC_TC_87" type="bus/city" route="S_N" depart="540" departLane="random" departSpeed="10.0" />
    <vehicle id="TR_TC_88" type="bus/city" route="E_N" depart="560" departLane="random" departSpeed="10.0" />
    <vehicle id="TR_TC_89" type="motorcycle" route="E_N" depart="563" departLane="random" departSpeed="10.0" />
    <vehicle id="BC_TC_90" type="bus/city" route="S_N" depart="564" departLane="random" departSpeed="10.0" />
    <vehicle id="BC_TC_91" type="motorcycle" route="S_N" depart="570" departLane="random" departSpeed="10.0" />
    <vehicle id="TR_TL_92" type="car" route="E_W" depart="575" departLane="random" departSpeed="10.0" />
    <vehicle id="BC_BR_93" type="motorcycle" route="S_E" depart="575" departLane="random" departSpeed="10.0" />
    <vehicle id="TR_TC_94" type="motorcycle" route="E_N" depart="581" departLane="random" departSpeed="10.0" />
    <vehicle id="BC_BR_95" type="car" route="S_E" depart="596" departLane="random" departSpeed="10.0" />
    <vehicle id="BL_BR_96" type="bus/city" route="W_E" depart="601" departLane="random" departSpeed="10.0" />
    <vehicle id="BC_BR_97" type="bus/city" route="S_E" depart="601" departLane="random" departSpeed="10.0" />
    <vehicle id="TR_TL_98" type="motorcycle" route="E_W" depart="604" departLane="random" departSpeed="10.0" />
    <vehicle id="TR_TC_99" type="motorcycle" route="E_N" depart="607" departLane="random" departSpeed="10.0" />
    <vehicle id="BC_TC_100" type="bus/city" route="S_N" depart="609" departLane="random" departSpeed="10.0" />
    <vehicle id="BL_BR_101" type="bus/city" route="W_E" depart="617" departLane="random" departSpeed="10.0" />
    <vehicle id="BC_BR_102" type="car" route="S_E" depart="624" departLane="random" departSpeed="10.0" />
    <vehicle id="BC_TC_103" type="car" route="S_N" depart="636" departLane="random" departSpeed="10.0" />
    <vehicle id="BL_BR_104" type="bus/city" route="W_E" depart="639" departLane="random" departSpeed="10.0" />
    <vehicle id="BL_BR_105" type="car" route="W_E" depart="646" departLane="random" departSpeed="10.0" />
    <vehicle id="BL_BR_106" type="motorcycle" route="W_E" depart="647" departLane="random" departSpeed="10.0" />
    <vehicle id="TR_TL_107" type="bus/city" route="E_W" depart="660" departLane="random" departSpeed="10.0" />
    <vehicle id="BL_BR_108" type="bus/city" route="W_E" depart="664" departLane="random" departSpeed="10.0" />
    <vehicle id="BL_BR_109" type="car" route="W_E" depart="667" departLane="random" departSpeed="10.0" />
    <vehicle id="TR_TC_110" type="car" route="E_N" depart="668" departLane="random" departSpeed="10.0" />
    <vehicle id="TR_TL_111" type="motorcycle" route="E_W" depart="672" departLane="random" departSpeed="10.0" />
    <vehicle id="TR_TC_112" type="car" route="E_N" depart="674" departLane="random" departSpeed="10.0" />
    <vehicle id="BC_TC_113" type="motorcycle" route="S_N" depart="676" departLane="random" departSpeed="10.0" />
    <vehicle id="BC_BR_114" type="motorcycle" route="S_E" depart="699" departLane="random" departSpeed="10.0" />
    <vehicle id="BC_TC_115" type="car" route="S_N" depart="699" departLane="random" departSpeed="10.0" />
    <vehicle id="BC_TL_116" type="motorcycle" route="S_W" depart="700" departLane="random" departSpeed="10.0" />
    <vehicle id="BC_TC_117" type="car" route="S_N" depart="710" departLane="random" departSpeed="10.0" />
    <vehicle id="BC_TC_118" type="bus/city" route="S_N" depart="714" departLane="random" departSpeed="10.0" />
    <vehicle id="BL_BR_119" type="bus/city" route="W_E" depart="714" departLane="random" departSpeed="10.0" />
    <vehicle id="TR_TL_120" type="motorcycle" route="E_W" depart="717" departLane="random" departSpeed="10.0" />
    <vehicle id="TR_TC_121" type="bus/city" route="E_N" depart="718" departLane="random" departSpeed="10.0" />
    <vehicle id="BC_TC_122" type="car" route="S_N" depart="724" departLane="random" departSpeed="10.0" />
    <vehicle id="BL_BR_123" type="car" route="W_E" depart="729" departLane="random" departSpeed="10.0" />
    <vehicle id="TR_TL_124" type="motorcycle" route="E_W" depart="729" departLane="random" departSpeed="10.0" />
    <vehicle id="BC_TC_125" type="car" route="S_N" depart="733" departLane="random" departSpeed="10.0" />
    <vehicle id="BC_TL_126" type="bus/city" route="S_W" depart="741" departLane="random" departSpeed="10.0" />
    <vehicle id="BL_BR_127" type="motorcycle" route="W_E" depart="754" departLane="random" departSpeed="10.0" />
    <vehicle id="BL_BR_128" type="bus/city" route="W_E" depart="761" departLane="random" departSpeed="10.0" />
    <vehicle id="BC_TC_129" type="car" route="S_N" depart="767" departLane="random" departSpeed="10.0" />
    <vehicle id="BL_BR_130" type="car" route="W_E" depart="770" departLane="random" departSpeed="10.0" />
    <vehicle id="TR_TL_131" type="bus/city" route="E_W" depart="771" departLane="random" departSpeed="10.0" />
    <vehicle id="BC_TL_132" type="car" route="S_W" depart="776" departLane="random" departSpeed="10.0" />
    <vehicle id="TR_TC_133" type="bus/city" route="E_N" depart="776" departLane="random" departSpeed="10.0" />
    <vehicle id="BL_BR_134" type="motorcycle" route="W_E" depart="785" departLane="random" departSpeed="10.0" />
    <vehicle id="TR_TL_135" type="bus/city" route="E_W" depart="794" departLane="random" departSpeed="10.0" />
    <vehicle id="BC_TL_136" type="car" route="S_W" depart="798" departLane="random" departSpeed="10.0" />
    <vehicle id="BC_TL_137" type="bus/city" route="S_W" depart="805" departLane="random" departSpeed="10.0" />
    <vehicle id="BC_TC_138" type="car" route="S_N" depart="815" departLane="random" departSpeed="10.0" />
    <vehicle id="TR_TC_139" type="bus/city" route="E_N" depart="816" departLane="random" departSpeed="10.0" />
    <vehicle id="BC_BR_140" type="car" route="S_E" depart="824" departLane="random" departSpeed="10.0" />
    <vehicle id="BC_TC_141" type="car" route="S_N" depart="826" departLane="random" departSpeed="10.0" />
    <vehicle id="BC_TL_142" type="car" route="S_W" depart="828" departLane="random" departSpeed="10.0" />
    <vehicle id="BC_TL_143" type="car" route="S_W" depart="831" departLane="random" departSpeed="10.0" />
    <vehicle id="BC_TC_144" type="motorcycle" route="S_N" depart="847" departLane="random" departSpeed="10.0" />
    <vehicle id="BC_TL_145" type="motorcycle" route="S_W" depart="852" departLane="random" departSpeed="10.0" />
    <vehicle id="BC_TL_146" type="bus/city" route="S_W" depart="854" departLane="random" departSpeed="10.0" />
    <vehicle id="TR_TL_147" type="motorcycle" route="E_W" depart="855" departLane="random" departSpeed="10.0" />
    <vehicle id="BL_BR_148" type="motorcycle" route="W_E" depart="861" departLane="random" departSpeed="10.0" />
    <vehicle id="BC_BR_149" type="motorcycle" route="S_E" depart="864" departLane="random" departSpeed="10.0" />
    <vehicle id="BC_TL_150" type="bus/city" route="S_W" depart="871" departLane="random" departSpeed="10.0" />
    <vehicle id="TR_TL_151" type="motorcycle" route="E_W" depart="873" departLane="random" departSpeed="10.0" />
    <vehicle id="BC_TC_152" type="bus/city" route="S_N" depart="877" departLane="random" departSpeed="10.0" />
    <vehicle id="TR_TC_153" type="car" route="E_N" depart="877" departLane="random" departSpeed="10.0" />
    <vehicle id="BC_TC_154" type="car" route="S_N" depart="879" departLane="random" departSpeed="10.0" />
    <vehicle id="TR_TL_155" type="motorcycle" route="E_W" depart="895" departLane="random" departSpeed="10.0" />
    <vehicle id="TR_TL_156" type="car" route="E_W" depart="896" departLane="random" departSpeed="10.0" />
    <vehicle id="TR_TL_157" type="motorcycle" route="E_W" depart="900" departLane="random" departSpeed="10.0" />
    <vehicle id="BC_BR_158" type="bus/city" route="S_E" depart="902" departLane="random" departSpeed="10.0" />
    <vehicle id="BC_BR_159" type="car" route="S_E" depart="919" departLane="random" departSpeed="10.0" />
    <vehicle id="BC_TL_160" type="bus/city" route="S_W" depart="920" departLane="random" departSpeed="10.0" />
    <vehicle id="TR_TL_161" type="motorcycle" route="E_W" depart="923" departLane="random" departSpeed="10.0" />
    <vehicle id="BC_TL_162" type="motorcycle" route="S_W" depart="925" departLane="random" departSpeed="10.0" />
    <vehicle id="BC_TC_163" type="motorcycle" route="S_N" depart="929" departLane="random" departSpeed="10.0" />
    <vehicle id="BL_BR_164" type="motorcycle" route="W_E" depart="951" departLane="random" departSpeed="10.0" />
    <vehicle id="BC_TC_165" type="bus/city" route="S_N" depart="954" departLane="random" departSpeed="10.0" />
    <vehicle id="BC_TC_166" type="motorcycle" route="S_N" depart="955" departLane="random" departSpeed="10.0" />
    <vehicle id="TR_TL_167" type="bus/city" route="E_W" depart="957" departLane="random" departSpeed="10.0" />
    <vehicle id="BL_BR_168" type="car" route="W_E" depart="960" departLane="random" departSpeed="10.0" />
    <vehicle id="BC_TC_169" type="car" route="S_N" depart="972" departLane="random" departSpeed="10.0" />
    <vehicle id="BL_BR_170" type="car" route="W_E" depart="976" departLane="random" departSpeed="10.0" />
    <vehicle id="BC_TC_171" type="bus/city" route="S_N" depart="981" departLane="random" departSpeed="10.0" />
    <vehicle id="BC_TC_172" type="bus/city" route="S_N" depart="985" departLane="random" departSpeed="10.0" />
    <vehicle id="TR_TL_173" type="car" route="E_W" depart="992" departLane="random" departSpeed="10.0" />
    <vehicle id="BL_BR_174" type="car" route="W_E" depart="993" departLane="random" departSpeed="10.0" />
    <vehicle id="TR_TC_175" type="car" route="E_N" depart="996" departLane="random" departSpeed="10.0" />
    <vehicle id="BC_TL_176" type="motorcycle" route="S_W" depart="1013" departLane="random" departSpeed="10.0" />
    <vehicle id="BL_BR_177" type="motorcycle" route="W_E" depart="1016" departLane="random" departSpeed="10.0" />
    <vehicle id="BC_TC_178" type="bus/city" route="S_N" depart="1016" departLane="random" departSpeed="10.0" />
    <vehicle id="BC_TL_179" type="motorcycle" route="S_W" depart="1017" departLane="random" departSpeed="10.0" />
    <vehicle id="BC_TC_180" type="bus/city" route="S_N" depart="1017" departLane="random" departSpeed="10.0" />
    <vehicle id="TR_TL_181" type="motorcycle" route="E_W" depart="1022" departLane="random" departSpeed="10.0" />
    <vehicle id="BL_BR_182" type="car" route="W_E" depart="1029" departLane="random" departSpeed="10.0" />
    <vehicle id="TR_TL_183" type="motorcycle" route="E_W" depart="1046" departLane="random" departSpeed="10.0" />
    <vehicle id="BC_TC_184" type="motorcycle" route="S_N" depart="1060" departLane="random" departSpeed="10.0" />
    <vehicle id="BC_BR_185" type="car" route="S_E" depart="1061" departLane="random" departSpeed="10.0" />
    <vehicle id="BC_TC_186" type="bus/city" route="S_N" depart="1063" departLane="random" departSpeed="10.0" />
    <vehicle id="BC_TC_187" type="bus/city" route="S_N" depart="1063" departLane="random" departSpeed="10.0" />
    <vehicle id="TR_TL_188" type="car" route="E_W" depart="1064" departLane="random" departSpeed="10.0" />
    <vehicle id="TR_TL_189" type="motorcycle" route="E_W" depart="1066" departLane="random" departSpeed="10.0" />
    <vehicle id="TR_TL_190" type="car" route="E_W" depart="1067" departLane="random" departSpeed="10.0" />
    <vehicle id="BC_TL_191" type="motorcycle" route="S_W" depart="1070" departLane="random" departSpeed="10.0" />
    <vehicle id="TR_TL_192" type="car" route="E_W" depart="1077" departLane="random" departSpeed="10.0" />
    <vehicle id="TR_TL_193" type="bus/city" route="E_W" depart="1078" departLane="random" departSpeed="10.0" />
    <vehicle id="TR_TC_194" type="bus/city" route="E_N" depart="1082" departLane="random" departSpeed="10.0" />
    <vehicle id="TR_TL_195" type="car" route="E_W" depart="1082" departLane="random" departSpeed="10.0" />
    <vehicle id="BC_BR_196" type="motorcycle" route="S_E" depart="1083" departLane="random" departSpeed="10.0" />
    <vehicle id="BC_TL_197" type="car" route="S_W" depart="1119" departLane="random" departSpeed="10.0" />
    <vehicle id="BC_TC_198" type="bus/city" route="S_N" depart="1121" departLane="random" departSpeed="10.0" />
    <vehicle id="BL_BR_199" type="bus/city" route="W_E" depart="1123" departLane="random" departSpeed="10.0" />
    <vehicle id="BL_BR_200" type="bus/city" route="W_E" depart="1140" departLane="random" departSpeed="10.0" />
    <vehicle id="BL_BR_201" type="car" route="W_E" depart="1142" departLane="random" departSpeed="10.0" />
    <vehicle id="BL_BR_202" type="car" route="W_E" depart="1146" departLane="random" departSpeed="10.0" />
    <vehicle id="BC_TC_203" type="bus/city" route="S_N" depart="1148" departLane="random" departSpeed="10.0" />
    <vehicle id="TR_TL_204" type="motorcycle" route="E_W" depart="1149" departLane="random" departSpeed="10.0" />
    <vehicle id="BC_TC_205" type="bus/city" route="S_N" depart="1151" departLane="random" departSpeed="10.0" />
    <vehicle id="BL_BR_206" type="motorcycle" route="W_E" depart="1155" departLane="random" departSpeed="10.0" />
    <vehicle id="TR_TC_207" type="car" route="E_N" depart="1156" departLane="random" departSpeed="10.0" />
    <vehicle id="BC_BR_208" type="car" route="S_E" depart="1157" departLane="random" departSpeed="10.0" />
    <vehicle id="BL_BR_209" type="motorcycle" route="W_E" depart="1161" departLane="random" departSpeed="10.0" />
    <vehicle id="BC_BR_210" type="bus/city" route="S_E" depart="1167" departLane="random" departSpeed="10.0" />
    <vehicle id="TR_TC_211" type="motorcycle" route="E_N" depart="1168" departLane="random" departSpeed="10.0" />
    <vehicle id="TR_TL_212" type="motorcycle" route="E_W" depart="1170" departLane="random" departSpeed="10.0" />
    <vehicle id="TR_TC_213" type="bus/city" route="E_N" depart="1185" departLane="random" departSpeed="10.0" />
    <vehicle id="TR_TL_214" type="car" route="E_W" depart="1185" departLane="random" departSpeed="10.0" />
    <vehicle id="TR_TL_215" type="bus/city" route="E_W" depart="1192" departLane="random" departSpeed="10.0" />
    <vehicle id="BL_BR_216" type="car" route="W_E" depart="1203" departLane="random" departSpeed="10.0" />
    <vehicle id="TR_TC_217" type="bus/city" route="E_N" depart="1206" departLane="random" departSpeed="10.0" />
    <vehicle id="BC_TL_218" type="car" route="S_W" depart="1215" departLane="random" departSpeed="10.0" />
    <vehicle id="TR_TC_219" type="motorcycle" route="E_N" depart="1218" departLane="random" departSpeed="10.0" />
    <vehicle id="TR_TL_220" type="bus/city" route="E_W" depart="1219" departLane="random" departSpeed="10.0" />
    <vehicle id="BL_BR_221" type="car" route="W_E" depart="1244" departLane="random" departSpeed="10.0" />
    <vehicle id="BC_TC_222" type="bus/city" route="S_N" depart="1244" departLane="random" departSpeed="10.0" />
    <vehicle id="TR_TL_223" type="car" route="E_W" depart="1244" departLane="random" departSpeed="10.0" />
    <vehicle id="BC_TC_224" type="car" route="S_N" depart="1249" departLane="random" departSpeed="10.0" />
    <vehicle id="BL_BR_225" type="bus/city" route="W_E" depart="1251" departLane="random" departSpeed="10.0" />
    <vehicle id="BC_TL_226" type="car" route="S_W" depart="1253" departLane="random" departSpeed="10.0" />
    <vehicle id="TR_TL_227" type="bus/city" route="E_W" depart="1253" departLane="random" departSpeed="10.0" />
    <vehicle id="BC_BR_228" type="car" route="S_E" depart="1255" departLane="random" departSpeed="10.0" />
    <vehicle id="TR_TC_229" type="bus/city" route="E_N" depart="1257" departLane="random" departSpeed="10.0" />
    <vehicle id="TR_TC_230" type="bus/city" route="E_N" depart="1268" departLane="random" departSpeed="10.0" />
    <vehicle id="TR_TL_231" type="motorcycle" route="E_W" depart="1276" departLane="random" departSpeed="10.0" />
    <vehicle id="BC_TL_232" type="motorcycle" route="S_W" depart="1277" departLane="random" departSpeed="10.0" />
    <vehicle id="BC_TC_233" type="car" route="S_N" depart="1283" departLane="random" departSpeed="10.0" />
    <vehicle id="TR_TL_234" type="bus/city" route="E_W" depart="1292" departLane="random" departSpeed="10.0" />
    <vehicle id="TR_TL_235" type="bus/city" route="E_W" depart="1297" departLane="random" departSpeed="10.0" />
    <vehicle id="BL_BR_236" type="car" route="W_E" depart="1301" departLane="random" departSpeed="10.0" />
    <vehicle id="TR_TL_237" type="car" route="E_W" depart="1307" departLane="random" departSpeed="10.0" />
    <vehicle id="BC_TC_238" type="car" route="S_N" depart="1313" departLane="random" departSpeed="10.0" />
    <vehicle id="BL_BR_239" type="motorcycle" route="W_E" depart="1315" departLane="random" departSpeed="10.0" />
    <vehicle id="TR_TL_240" type="motorcycle" route="E_W" depart="1319" departLane="random" departSpeed="10.0" />
    <vehicle id="BL_BR_241" type="car" route="W_E" depart="1325" departLane="random" departSpeed="10.0" />
    <vehicle id="BL_BR_242" type="motorcycle" route="W_E" depart="1330" departLane="random" departSpeed="10.0" />
    <vehicle id="BL_BR_243" type="car" route="W_E" depart="1332" departLane="random" departSpeed="10.0" />
    <vehicle id="BC_TC_244" type="motorcycle" route="S_N" depart="1333" departLane="random" departSpeed="10.0" />
    <vehicle id="BC_BR_245" type="bus/city" route="S_E" depart="1343" departLane="random" departSpeed="10.0" />
    <vehicle id="TR_TL_246" type="car" route="E_W" depart="1349" departLane="random" departSpeed="10.0" />
    <vehicle id="BL_BR_247" type="car" route="W_E" depart="1354" departLane="random" departSpeed="10.0" />
    <vehicle id="BL_BR_248" type="motorcycle" route="W_E" depart="1359" departLane="random" departSpeed="10.0" />
    <vehicle id="BL_BR_249" type="bus/city" route="W_E" depart="1359" departLane="random" departSpeed="10.0" />
    <vehicle id="BL_BR_250" type="motorcycle" route="W_E" depart="1364" departLane="random" departSpeed="10.0" />
    <vehicle id="BL_BR_251" type="car" route="W_E" depart="1364" departLane="random" departSpeed="10.0" />
    <vehicle id="TR_TC_252" type="motorcycle" route="E_N" depart="1366" departLane="random" departSpeed="10.0" />
    <vehicle id="BL_BR_253" type="motorcycle" route="W_E" depart="1366" departLane="random" departSpeed="10.0" />
    <vehicle id="TR_TL_254" type="bus/city" route="E_W" depart="1370" departLane="random" departSpeed="10.0" />
    <vehicle id="TR_TL_255" type="car" route="E_W" depart="1370" departLane="random" departSpeed="10.0" />
    <vehicle id="BC_TC_256" type="motorcycle" route="S_N" depart="1385" departLane="random" departSpeed="10.0" />
    <vehicle id="BC_TC_257" type="car" route="S_N" depart="1389" departLane="random" departSpeed="10.0" />
    <vehicle id="BC_TC_258" type="car" route="S_N" depart="1397" departLane="random" departSpeed="10.0" />
    <vehicle id="BL_BR_259" type="bus/city" route="W_E" depart="1410" departLane="random" departSpeed="10.0" />
    <vehicle id="BC_TC_260" type="motorcycle" route="S_N" depart="1446" departLane="random" departSpeed="10.0" />
    <vehicle id="TR_TL_261" type="car" route="E_W" depart="1461" departLane="random" departSpeed="10.0" />
    <vehicle id="TR_TC_262" type="motorcycle" route="E_N" depart="1461" departLane="random" departSpeed="10.0" />
    <vehicle id="TR_TL_263" type="motorcycle" route="E_W" depart="1471" departLane="random" departSpeed="10.0" />
    <vehicle id="BC_TC_264" type="bus/city" route="S_N" depart="1479" departLane="random" departSpeed="10.0" />
    <vehicle id="TR_TL_265" type="car" route="E_W" depart="1485" departLane="random" departSpeed="10.0" />