<routes>
                <vType id="car" accel="1.0" decel="4.5" sigma="0.5" length="5.0" minGap="2.5" maxSpeed="20.0" guiShape="passenger" />
                <vType id="bus/city" accel="0.9" decel="4.5" sigma="0.5" length="5.0" minGap="2.5" maxSpeed="20.0" guiShape="bus" color="1,0,0"/>
                <vType id="motorcycle" accel="1.0" decel="4.5" sigma="0.5" length="2.0" minGap="3.0" maxSpeed="20.0" guiShape="motorcycle" color="0.5,0.5,1"/>
        
                <route id="S_N" edges="BC TC" />
                <route id="S_W" edges="BC TL" />
                <route id="S_E" edges="BC BR" />
                <route id="W_E" edges="BL BR" />
                <route id="E_N" edges="TR TC" />
                <route id="E_W" edges="TR TL" />
    <vehicle id="BC_BR_0" type="bus/city" route="S_E" depart="9" departLane="random" departSpeed="10.0" />
    <vehicle id="BC_BR_1" type="bus/city" route="S_E" depart="11" departLane="random" departSpeed="10.0" />
    <vehicle id="TR_TL_2" type="motorcycle" route="E_W" depart="12" departLane="random" departSpeed="10.0" />
    <vehicle id="TR_TC_3" type="motorcycle" route="E_N" depart="16" departLane="random" departSpeed="10.0" />
    <vehicle id="BC_TC_4" type="motorcycle" route="S_N" depart="32" departLane="random" departSpeed="10.0" />
    <vehicle id="BL_BR_5" type="car" route="W_E" depart="53" departLane="random" departSpeed="10.0" />
    <vehicle id="TR_TL_6" type="car" route="E_W" depart="54" departLane="random" departSpeed="10.0" />
    <vehicle id="BL_BR_7" type="bus/city" route="W_E" depart="57" departLane="random" departSpeed="10.0" />
    <vehicle id="TR_TC_8" type="car" route="E_N" depart="68" departLane="random" departSpeed="10.0" />
    <vehicle id="BC_BR_9" type="motorcycle" route="S_E" depart="70" departLane="random" departSpeed="10.0" />
    <vehicle id="BL_BR_10" type="car" route="W_E" depart="77" departLane="random" departSpeed="10.0" />
    <vehicle id="TR_TL_11" type="car" route="E_W" depart="82" departLane="random" departSpeed="10.0" />
    <vehicle id="BC_TC_12" type="car" route="S_N" depart="84" departLane="random" departSpeed="10.0" />
    <vehicle id="BC_BR_13" type="bus/city" route="S_E" depart="89" departLane="random" departSpeed="10.0" />
    <vehicle id="TR_TL_14" type="motorcycle" route="E_W" depart="91" departLane="random" departSpeed="10.0" />
    <vehicle id="BC_TC_15" type="bus/city" route="S_N" depart="92" departLane="random" departSpeed="10.0" />
    <vehicle id="TR_TC_16" type="motorcycle" route="E_N" depart="94" departLane="random" departSpeed="10.0" />
    <vehicle id="BL_BR_17" type="bus/city" route="W_E" depart="105" departLane="random" departSpeed="10.0" />
    <vehicle id="TR_TL_18" type="car" route="E_W" depart="105" departLane="random" departSpeed="10.0" />
    <vehicle id="BC_TC_19" type="motorcycle" route="S_N" depart="106" departLane="random" departSpeed="10.0" />
    <vehicle id="TR_TC_20" type="motorcycle" route="E_N" depart="109" departLane="random" departSpeed="10.0" />
    <vehicle id="BC_TC_21" type="bus/city" route="S_N" depart="114" departLane="random" departSpeed="10.0" />
    <vehicle id="BC_TC_22" type="bus/city" route="S_N" depart="115" departLane="random" departSpeed="10.0" />
    <vehicle id="BL_BR_23" type="motorcycle" route="W_E" depart="116" departLane="random" departSpeed="10.0" />
    <vehicle id="BC_TC_24" type="bus/city" route="S_N" depart="118" departLane="random" departSpeed="10.0" />
    <vehicle id="BL_BR_25" type="car" route="W_E" depart="121" departLane="random" departSpeed="10.0" />
    <vehicle id="BC_TC_26" type="car" route="S_N" depart="122" departLane="random" departSpeed="10.0" />
    <vehicle id="BC_TL_27" type="bus/city" route="S_W" depart="125" departLane="random" departSpeed="10.0" />
    <vehicle id="BC_TC_28" type="motorcycle" route="S_N" depart="130" departLane="random" departSpeed="10.0" />
    <vehicle id="TR_TC_29" type="car" route="E_N" depart="136" departLane="random" departSpeed="10.0" />
    <vehicle id="TR_TC_30" type="motorcycle" route="E_N" depart="144" departLane="random" departSpeed="10.0" />
    <vehicle id="BL_BR_31" type="bus/city" route="W_E" depart="144" departLane="random" departSpeed="10.0" />
    <vehicle id="BC_BR_32" type="bus/city" route="S_E" depart="150" departLane="random" departSpeed="10.0" />
    <vehicle id="TR_TL_33" type="motorcycle" route="E_W" depart="151" departLane="random" departSpeed="10.0" />
    <vehicle id="BL_BR_34" type="car" route="W_E" depart="157" departLane="random" departSpeed="10.0" />
    <vehicle id="TR_TL_35" type="car" route="E_W" depart="157" departLane="random" departSpeed="10.0" />
    <vehicle id="TR_TL_36" type="bus/city" route="E_W" depart="161" departLane="random" departSpeed="10.0" />
    <vehicle id="TR_TC_37" type="motorcycle" route="E_N" depart="165" departLane="random" departSpeed="10.0" />
    <vehicle id="TR_TL_38" type="motorcycle" route="E_W" depart="176" departLane="random" departSpeed="10.0" />
    <vehicle id="BL_BR_39" type="motorcycle" route="W_E" depart="178" departLane="random" departSpeed="10.0" />
    <vehicle id="BC_BR_40" type="car" route="S_E" depart="189" departLane="random" departSpeed="10.0" />
    <vehicle id="TR_TC_41" type="motorcycle" route="E_N" depart="197" departLane="random" departSpeed="10.0" />
    <vehicle id="TR_TL_42" type="motorcycle" route="E_W" depart="207" departLane="random" departSpeed="10.0" />
    <vehicle id="BC_BR_43" type="bus/city" route="S_E" depart="215" departLane="random" departSpeed="10.0" />
    <vehicle id="BL_BR_44" type="car" route="W_E" depart="217" departLane="random" departSpeed="10.0" />
    <vehicle id="BL_BR_45" type="bus/city" route="W_E" depart="218" departLane="random" departSpeed="10.0" />
    <vehicle id="TR_TL_46" type="motorcycle" route="E_W" depart="226" departLane="random" departSpeed="10.0" />
    <vehicle id="BL_BR_47" type="car" route="W_E" depart="236" departLane="random" departSpeed="10.0" />
    <vehicle id="BL_BR_48" type="motorcycle" route="W_E" depart="246" departLane="random" departSpeed="10.0" />
    <vehicle id="BL_BR_49" type="car" route="W_E" depart="247" departLane="random" departSpeed="10.0" />
    <vehicle id="BC_TC_50" type="car" route="S_N" depart="247" departLane="random" departSpeed="10.0" />
    <vehicle id="BC_TC_51" type="motorcycle" route="S_N" depart="248" departLane="random" departSpeed="10.0" />
    <vehicle id="BC_TC_52" type="bus/city" route="S_N" depart="251" departLane="random" departSpeed="10.0" />
    <vehicle id="BC_TC_53" type="bus/city" route="S_N" depart="251" departLane="random" departSpeed="10.0" />
    <vehicle id="TR_TL_54" type="bus/city" route="E_W" depart="258" departLane="random" departSpeed="10.0" />
    <vehicle id="BC_BR_55" type="motorcycle" route="S_E" depart="284" departLane="random" departSpeed="10.0" />
    <vehicle id="BL_BR_56" type="bus/city" route="W_E" depart="290" departLane="random" departSpeed="10.0" />
    <vehicle id="BC_TL_57" type="car" route="S_W" depart="293" departLane="random" departSpeed="10.0" />
    <vehicle id="BL_BR_58" type="bus/city" route="W_E" depart="294" departLane="random" departSpeed="10.0" />
    <vehicle id="BL_BR_59" type="bus/city" route="W_E" depart="312" departLane="random" departSpeed="10.0" />
    <vehicle id="BL_BR_60" type="motorcycle" route="W_E" depart="315" departLane="random" departSpeed="10.0" />
    <vehicle id="TR_TL_61" type="motorcycle" route="E_W" depart="323" departLane="random" departSpeed="10.0" />
    <vehicle id="BL_BR_62" type="car" route="W_E" depart="330" departLane="random" departSpeed="10.0" />
    <vehicle id="TR_TC_63" type="bus/city" route="E_N" depart="336" departLane="random" departSpeed="10.0" />
    <vehicle id="BC_TL_64" type="motorcycle" route="S_W" depart="338" departLane="random" departSpeed="10.0" />
    <vehicle id="BL_BR_65" type="motorcycle" route="W_E" depart="339" departLane="random" departSpeed="10.0" />
    <vehicle id="TR_TC_66" type="motorcycle" route="E_N" depart="342" departLane="random" departSpeed="10.0" />
    <vehicle id="TR_TL_67" type="car" route="E_W" depart="344" departLane="random" departSpeed="10.0" />
    <vehicle id="BL_BR_68" type="bus/city" route="W_E" depart="344" departLane="random" departSpeed="10.0" />
    <vehicle id="TR_TL_69" type="motorcycle" route="E_W" depart="351" departLane="random" departSpeed="10.0" />
    <vehicle id="BC_BR_70" type="motorcycle" route="S_E" depart="351" departLane="random" departSpeed="10.0" />
    <vehicle id="BL_BR_71" type="car" route="W_E" depart="365" departLane="random" departSpeed="10.0" />
    <vehicle id="TR_TC_72" type="bus/city" route="E_N" depart="368" departLane="random" departSpeed="10.0" />
    <vehicle id="BC_TC_73" type="motorcycle" route="S_N" depart="375" departLane="random" departSpeed="10.0" />
    <vehicle id="BL_BR_74" type="car" route="W_E" depart="379" departLane="random" departSpeed="10.0" />
    <vehicle id="BC_TL_75" type="car" route="S_W" depart="380" departLane="random" departSpeed="10.0" />
    <vehicle id="BC_TC_76" type="car" route="S_N" depart="382" departLane="random" departSpeed="10.0" />
    <vehicle id="TR_TC_77" type="motorcycle" route="E_N" depart="387" departLane="random" departSpeed="10.0" />
    <vehicle id="TR_TL_78" type="motorcycle" route="E_W" depart="387" departLane="random" departSpeed="10.0" />
    <vehicle id="TR_TL_79" type="bus/city" route="E_W" depart="396" departLane="random" departSpeed="10.0" />
    <vehicle id="BC_TC_80" type="bus/city" route="S_N" depart="401" departLane="random" departSpeed="10.0" />
    <vehicle id="TR_TL_81" type="motorcycle" route="E_W" depart="407" departLane="random" departSpeed="10.0" />
    <vehicle id="BC_TC_82" type="car" route="S_N" depart="410" departLane="random" departSpeed="10.0" />
    <vehicle id="BC_BR_83" type="bus/city" route="S_E" depart="411" departLane="random" departSpeed="10.0" />
    <vehicle id="BC_TL_84" type="motorcycle" route="S_W" depart="412" departLane="random" departSpeed="10.0" />
    <vehicle id="BC_BR_85" type="car" route="S_E" depart="416" departLane="random" departSpeed="10.0" />
    <vehicle id="TR_TL_86" type="car" route="E_W" depart="417" departLane="random" departSpeed="10.0" />
    <vehicle id="BL_BR_87" type="car" route="W_E" depart="422" departLane="random" departSpeed="10.0" />
    <vehicle id="BL_BR_88" type="bus/city" route="W_E" depart="437" departLane="random" departSpeed="10.0" />
    <vehicle id="BC_TC_89" type="car" route="S_N" depart="443" departLane="random" departSpeed="10.0" />
    <vehicle id="TR_TL_90" type="car" route="E_W" depart="449" departLane="random" departSpeed="10.0" />
    <vehicle id="TR_TC_91" type="car" route="E_N" depart="461" departLane="random" departSpeed="10.0" />
    <vehicle id="TR_TL_92" type="motorcycle" route="E_W" depart="465" departLane="random" departSpeed="10.0" />
    <vehicle id="BL_BR_93" type="car" route="W_E" depart="466" departLane="random" departSpeed="10.0" />
    <vehicle id="TR_TL_94" type="motorcycle" route="E_W" depart="469" departLane="random" departSpeed="10.0" />
    <vehicle id="TR_TL_95" type="car" route="E_W" depart="487" departLane="random" departSpeed="10.0" />
    <vehicle id="TR_TL_96" type="car" route="E_W" depart="487" departLane="random" departSpeed="10.0" />
    <vehicle id="BL_BR_97" type="bus/city" route="W_E" depart="491" departLane="random" departSpeed="10.0" />
    <vehicle id="TR_TC_98" type="bus/city" route="E_N" depart="491" departLane="random" departSpeed="10.0" />
    <vehicle id="BL_BR_99" type="motorcycle" route="W_E" depart="496" departLane="random" departSpeed="10.0" />
    <vehicle id="BL_BR_100" type="motorcycle" route="W_E" depart="500" departLane="random" departSpeed="10.0" />
    <vehicle id="BL_BR_101" type="car" route="W_E" depart="503" departLane="random" departSpeed="10.0" />
    <vehicle id="TR_TC_102" type="bus/city" route="E_N" depart="506" departLane="random" departSpeed="10.0" />
    <vehicle id="TR_TL_103" type="motorcycle" route="E_W" depart="508" departLane="random" departSpeed="10.0" />
    <vehicle id="BL_BR_104" type="motorcycle" route="W_E" depart="518" departLane="random" departSpeed="10.0" />
    <vehicle id="BL_BR_105" type="car" route="W_E" depart="528" departLane="random" departSpeed="10.0" />
    <vehicle id="BL_BR_106" type="bus/city" route="W_E" depart="529" departLane="random" departSpeed="10.0" />
    <vehicle id="BC_BR_107" type="motorcycle" route="S_E" depart="530" departLane="random" departSpeed="10.0" />
    <vehicle id="BL_BR_108" type="motorcycle" route="W_E" depart="537" departLane="random" departSpeed="10.0" />
    <vehicle id="TR_TL_109" type="car" route="E_W" depart="541" departLane="random" departSpeed="10.0" />
    <vehicle id="BL_BR_110" type="car" route="W_E" depart="544" departLane="random" departSpeed="10.0" />
    <vehicle id="BL_BR_111" type="car" route="W_E" depart="544" departLane="random" departSpeed="10.0" />
    <vehicle id="BL_BR_112" type="motorcycle" route="W_E" depart="548" departLane="random" departSpeed="10.0" />
    <vehicle id="BL_BR_113" type="bus/city" route="W_E" depart="549" departLane="random" departSpeed="10.0" />
    <vehicle id="BC_TC_114" type="motorcycle" route="S_N" depart="561" departLane="random" departSpeed="10.0" />
    <vehicle id="BL_BR_115" type="bus/city" route="W_E" depart="566" departLane="random" departSpeed="10.0" />
    <vehicle id="TR_TL_116" type="bus/city" route="E_W" depart="569" departLane="random" departSpeed="10.0" />
    <vehicle id="BC_TL_117" type="car" route="S_W" depart="581" departLane="random" departSpeed="10.0" />
    <vehicle id="BC_TC_118" type="motorcycle" route="S_N" depart="583" departLane="random" departSpeed="10.0" />
    <vehicle id="TR_TL_119" type="car" route="E_W" depart="584" departLane="random" departSpeed="10.0" />
    <vehicle id="BC_TC_120" type="motorcycle" route="S_N" depart="589" departLane="random" departSpeed="10.0" />
    <vehicle id="TR_TL_121" type="bus/city" route="E_W" depart="601" departLane="random" departSpeed="10.0" />
    <vehicle id="TR_TL_122" type="car" route="E_W" depart="609" departLane="random" departSpeed="10.0" />
    <vehicle id="BC_TC_123" type="car" route="S_N" depart="610" departLane="random" departSpeed="10.0" />
    <vehicle id="BL_BR_124" type="car" route="W_E" depart="611" departLane="random" departSpeed="10.0" />
    <vehicle id="TR_TL_125" type="bus/city" route="E_W" depart="612" departLane="random" departSpeed="10.0" />
    <vehicle id="BL_BR_126" type="car" route="W_E" depart="620" departLane="random" departSpeed="10.0" />
    <vehicle id="BL_BR_127" type="motorcycle" route="W_E" depart="630" departLane="random" departSpeed="10.0" />
    <vehicle id="BL_BR_128" type="motorcycle" route="W_E" depart="655" departLane="random" departSpeed="10.0" />
    <vehicle id="BL_BR_129" type="motorcycle" route="W_E" depart="658" departLane="random" departSpeed="10.0" />
    <vehicle id="TR_TL_130" type="car" route="E_W" depart="658" departLane="random" departSpeed="10.0" />
    <vehicle id="BC_TL_131" type="bus/city" route="S_W" depart="659" departLane="random" departSpeed="10.0" />
    <vehicle id="BC_TC_132" type="motorcycle" route="S_N" depart="659" departLane="random" departSpeed="10.0" />
    <vehicle id="BC_TL_133" type="car" route="S_W" depart="664" departLane="random" departSpeed="10.0" />
    <vehicle id="BC_TL_134" type="bus/city" route="S_W" depart="668" departLane="random" departSpeed="10.0" />
    <vehicle id="BC_TC_135" type="motorcycle" route="S_N" depart="676" departLane="random" departSpeed="10.0" />
    <vehicle id="BC_TL_136" type="motorcycle" route="S_W" depart="677" departLane="random" departSpeed="10.0" />
    <vehicle id="BL_BR_137" type="bus/city" route="W_E" depart="689" departLane="random" departSpeed="10.0" />
    <vehicle id="TR_TC_138" type="car" route="E_N" depart="704" departLane="random" departSpeed="10.0" />
    <vehicle id="BC_BR_139" type="motorcycle" route="S_E" depart="706" departLane="random" departSpeed="10.0" />
    <vehicle id="BC_TL_140" type="bus/city" route="S_W" depart="707" departLane="random" departSpeed="10.0" />
    <vehicle id="BL_BR_141" type="bus/city" route="W_E" depart="708" departLane="random" departSpeed="10.0" />
    <vehicle id="TR_TC_142" type="motorcycle" route="E_N" depart="709" departLane="random" departSpeed="10.0" />
    <vehicle id="BC_BR_143" type="car" route="S_E" depart="717" departLane="random" departSpeed="10.0" />
    <vehicle id="BC_TC_144" type="bus/city" route="S_N" depart="738" departLane="random" departSpeed="10.0" />
    <vehicle id="TR_TL_145" type="bus/city" route="E_W" depart="747" departLane="random" departSpeed="10.0" />
    <vehicle id="TR_TL_146" type="bus/city" route="E_W" depart="747" departLane="random" departSpeed="10.0" />
    <vehicle id="BL_BR_147" type="car" route="W_E" depart="754" departLane="random" departSpeed="10.0" />
    <vehicle id="TR_TC_148" type="car" route="E_N" depart="756" departLane="random" departSpeed="10.0" />
    <vehicle id="TR_TL_149" type="bus/city" route="E_W" depart="758" departLane="random" departSpeed="10.0" />
    <vehicle id="BC_TC_150" type="motorcycle" route="S_N" depart="761" departLane="random" departSpeed="10.0" />
    <vehicle id="BL_BR_151" type="car" route="W_E" depart="761" departLane="random" departSpeed="10.0" />
    <vehicle id="BL_BR_152" type="car" route="W_E" depart="768" departLane="random" departSpeed="10.0" />
    <vehicle id="BL_BR_153" type="car" route="W_E" depart="770" departLane="random" departSpeed="10.0" />
    <vehicle id="BC_TC_154" type="bus/city" route="S_N" depart="776" departLane="random" departSpeed="10.0" />
    <vehicle id="BC_TC_155" type="motorcycle" route="S_N" depart="777" departLane="random" departSpeed="10.0" />
    <vehicle id="BC_BR_156" type="bus/city" route="S_E" depart="777" departLane="random" departSpeed="10.0" />
    <vehicle id="BC_BR_157" type="bus/city" route="S_E" depart="795" departLane="random" departSpeed="10.0" />
    <vehicle id="BL_BR_158" type="bus/city" route="W_E" depart="796" departLane="random" departSpeed="10.0" />
    <vehicle id="BC_BR_159" type="car" route="S_E" depart="800" departLane="random" departSpeed="10.0" />
    <vehicle id="BC_TC_160" type="bus/city" route="S_N" depart="802" departLane="random" departSpeed="10.0" />
    <vehicle id="TR_TL_161" type="motorcycle" route="E_W" depart="812" departLane="random" departSpeed="10.0" />
    <vehicle id="TR_TL_162" type="motorcycle" route="E_W" depart="812" departLane="random" departSpeed="10.0" />
    <vehicle id="TR_TL_163" type="motorcycle" route="E_W" depart="816" departLane="random" departSpeed="10.0" />
    <vehicle id="TR_TL_164" type="motorcycle" route="E_W" depart="817" departLane="random" departSpeed="10.0" />
    <vehicle id="TR_TL_165" type="car" route="E_W" depart="823" departLane="random" departSpeed="10.0" />
    <vehicle id="BC_TC_166" type="motorcycle" route="S_N" depart="831" departLane="random" departSpeed="10.0" />
    <vehicle id="BC_TC_167" type="car" route="S_N" depart="845" departLane="random" departSpeed="10.0" />
    <vehicle id="BL_BR_168" type="motorcycle" route="W_E" depart="867" departLane="random" departSpeed="10.0" />
    <vehicle id="TR_TC_169" type="car" route="E_N" depart="872" departLane="random" departSpeed="10.0" />
    <vehicle id="BC_TC_170" type="bus/city" route="S_N" depart="888" departLane="random" departSpeed="10.0" />
    <vehicle id="BL_BR_171" type="bus/city" route="W_E" depart="889" departLane="random" departSpeed="10.0" />
    <vehicle id="BL_BR_172" type="motorcycle" route="W_E" depart="892" departLane="random" departSpeed="10.0" />
    <vehicle id="TR_TL_173" type="motorcycle" route="E_W" depart="895" departLane="random" departSpeed="10.0" />
    <vehicle id="BL_BR_174" type="bus/city" route="W_E" depart="900" departLane="random" departSpeed="10.0" />
    <vehicle id="BL_BR_175" type="bus/city" route="W_E" depart="915" departLane="random" departSpeed="10.0" />
    <vehicle id="TR_TL_176" type="car" route="E_W" depart="917" departLane="random" departSpeed="10.0" />
    <vehicle id="TR_TL_177" type="bus/city" route="E_W" depart="920" departLane="random" departSpeed="10.0" />
    <vehicle id="BC_TL_178" type="car" route="S_W" depart="922" departLane="random" departSpeed="10.0" />
    <vehicle id="BL_BR_179" type="car" route="W_E" depart="928" departLane="random" departSpeed="10.0" />
    <vehicle id="BL_BR_180" type="bus/city" route="W_E" depart="931" departLane="random" departSpeed="10.0" />
    <vehicle id="BC_TC_181" type="motorcycle" route="S_N" depart="944" departLane="random" departSpeed="10.0" />
    <vehicle id="TR_TL_182" type="bus/city" route="E_W" depart="949" departLane="random" departSpeed="10.0" />
    <vehicle id="BC_BR_183" type="bus/city" route="S_E" depart="953" departLane="random" departSpeed="10.0" />
    <vehicle id="BC_TL_184" type="bus/city" route="S_W" depart="955" departLane="random" departSpeed="10.0" />
    <vehicle id="BL_BR_185" type="motorcycle" route="W_E" depart="963" departLane="random" departSpeed="10.0" />
    <vehicle id="BC_TC_186" type="car" route="S_N" depart="963" departLane="random" departSpeed="10.0" />
    <vehicle id="BC_TC_187" type="bus/city" route="S_N" depart="968" departLane="random" departSpeed="10.0" />
    <vehicle id="BL_BR_188" type="bus/city" route="W_E" depart="982" departLane="random" departSpeed="10.0" />
    <vehicle id="BC_TC_189" type="bus/city" route="S_N" depart="993" departLane="random" departSpeed="10.0" />
    <vehicle id="BC_TC_190" type="bus/city" route="S_N" depart="1003" departLane="random" departSpeed="10.0" />
    <vehicle id="TR_TL_191" type="motorcycle" route="E_W" depart="1016" departLane="random" departSpeed="10.0" />
    <vehicle id="BC_TC_192" type="bus/city" route="S_N" depart="1021" departLane="random" departSpeed="10.0" />
    <vehicle id="TR_TL_193" type="motorcycle" route="E_W" depart="1026" departLane="random" departSpeed="10.0" />
    <vehicle id="BC_TC_194" type="motorcycle" route="S_N" depart="1029" departLane="random" departSpeed="10.0" />
    <vehicle id="BC_TC_195" type="bus/city" route="S_N" depart="1033" departLane="random" departSpeed="10.0" />
    <vehicle id="BC_TC_196" type="bus/city" route="S_N" depart="1037" departLane="random" departSpeed="10.0" />
    <vehicle id="TR_TL_197" type="motorcycle" route="E_W" depart="1040" departLane="random" departSpeed="10.0" />
    <vehicle id="BL_BR_198" type="car" route="W_E" depart="1045" departLane="random" departSpeed="10.0" />
    <vehicle id="TR_TC_199" type="bus/city" route="E_N" depart="1045" departLane="random" departSpeed="10.0" />
    <vehicle id="BC_BR_200" type="bus/city" route="S_E" depart="1051" departLane="random" departSpeed="10.0" />
    <vehicle id="BL_BR_201" type="car" route="W_E" depart="1052" departLane="random" departSpeed="10.0" />
    <vehicle id="BC_TC_202" type="car" route="S_N" depart="1054" departLane="random" departSpeed="10.0" />
    <vehicle id="BL_BR_203" type="car" route="W_E" depart="1054" departLane="random" departSpeed="10.0" />
    <vehicle id="TR_TL_204" type="bus/city" route="E_W" depart="1060" departLane="random" departSpeed="10.0" />
    <vehicle id="BL_BR_205" type="motorcycle" route="W_E" depart="1065" departLane="random" departSpeed="10.0" />
    <vehicle id="TR_TL_206" type="bus/city" route="E_W" depart="1069" departLane="random" departSpeed="10.0" />
    <vehicle id="TR_TL_207" type="bus/city" route="E_W" depart="1072" departLane="random" departSpeed="10.0" />
    <vehicle id="BC_TL_208" type="car" route="S_W" depart="1073" departLane="random" departSpeed="10.0" />
    <vehicle id="TR_TL_209" type="motorcycle" route="E_W" depart="1074" departLane="random" departSpeed="10.0" />
    <vehicle id="BC_BR_210" type="bus/city" route="S_E" depart="1085" departLane="random" departSpeed="10.0" />
    <vehicle id="BC_TC_211" type="motorcycle" route="S_N" depart="1087" departLane="random" departSpeed="10.0" />
    <vehicle id="TR_TL_212" type="motorcycle" route="E_W" depart="1088" departLane="random" departSpeed="10.0" />
    <vehicle id="BC_TC_213" type="car" route="S_N" depart="1089" departLane="random" departSpeed="10.0" />
    <vehicle id="BL_BR_214" type="car" route="W_E" depart="1090" departLane="random" departSpeed="10.0" />
    <vehicle id="TR_TC_215" type="bus/city" route="E_N" depart="1094" departLane="random" departSpeed="10.0" />
    <vehicle id="BC_BR_216" type="bus/city" route="S_E" depart="1095" departLane="random" departSpeed="10.0" />
    <vehicle id="BC_TC_217" type="motorcycle" route="S_N" depart="1101" departLane="random" departSpeed="10.0" />
    <vehicle id="BC_TC_218" type="car" route="S_N" depart="1101" departLane="random" departSpeed="10.0" />
    <vehicle id="BL_BR_219" type="bus/city" route="W_E" depart="1125" departLane="random" departSpeed="10.0" />
    <vehicle id="BC_BR_220" type="motorcycle" route="S_E" depart="1126" departLane="random" departSpeed="10.0" />
    <vehicle id="TR_TL_221" type="car" route="E_W" depart="1131" departLane="random" departSpeed="10.0" />
    <vehicle id="TR_TL_222" type="motorcycle" route="E_W" depart="1150" departLane="random" departSpeed="10.0" />
    <vehicle id="BC_TC_223" type="motorcycle" route="S_N" depart="1158" departLane="random" departSpeed="10.0" />
    <vehicle id="TR_TL_224" type="car" route="E_W" depart="1166" departLane="random" departSpeed="10.0" />
    <vehicle id="BL_BR_225" type="motorcycle" route="W_E" depart="1168" departLane="random" departSpeed="10.0" />
    <vehicle id="BC_TC_226" type="car" route="S_N" depart="1171" departLane="random" departSpeed="10.0" />
    <vehicle id="BC_TC_227" type="car" route="S_N" depart="1174" departLane="random" departSpeed="10.0" />
    <vehicle id="BC_TC_228" type="bus/city" route="S_N" depart="1177" departLane="random" departSpeed="10.0" />
    <vehicle id="TR_TL_229" type="motorcycle" route="E_W" depart="1184" departLane="random" departSpeed="10.0" />
    <vehicle id="BL_BR_230" type="motorcycle" route="W_E" depart="1185" departLane="random" departSpeed="10.0" />
    <vehicle id="BL_BR_231" type="bus/city" route="W_E" depart="1188" departLane="random" departSpeed="10.0" />
    <vehicle id="BL_BR_232" type="motorcycle" route="W_E" depart="1218" departLane="random" departSpeed="10.0" />
    <vehicle id="TR_TL_233" type="car" route="E_W" depart="1222" departLane="random" departSpeed="10.0" />
    <vehicle id="BC_TC_234" type="car" route="S_N" depart="1222" departLane="random" departSpeed="10.0" />
    <vehicle id="BC_TC_235" type="motorcycle" route="S_N" depart="1237" departLane="random" departSpeed="10.0" />
    <vehicle id="TR_TL_236" type="car" route="E_W" depart="1245" departLane="random" departSpeed="10.0" />
    <vehicle id="TR_TL_237" type="motorcycle" route="E_W" depart="1247" departLane="random" departSpeed="10.0" />
    <vehicle id="TR_TC_238" type="bus/city" route="E_N" depart="1249" departLane="random" departSpeed="10.0" />
    <vehicle id="BL_BR_239" type="car" route="W_E" depart="1261" departLane="random" departSpeed="10.0" />
    <vehicle id="TR_TC_240" type="car" route="E_N" depart="1261" departLane="random" departSpeed="10.0" />
    <vehicle id="BC_BR_241" type="motorcycle" route="S_E" depart="1264" departLane="random" departSpeed="10.0" />
    <vehicle id="BC_TC_242" type="motorcycle" route="S_N" depart="1277" departLane="random" departSpeed="10.0" />
    <vehicle id="BL_BR_243" type="motorcycle" route="W_E" depart="1280" departLane="random" departSpeed="10.0" />
    <vehicle id="TR_TL_244" type="bus/city" route="E_W" depart="1281" departLane="random" departSpeed="10.0" />
    <vehicle id="TR_TL_245" type="car" route="E_W" depart="1284" departLane="random" departSpeed="10.0" />
    <vehicle id="BC_BR_246" type="car" route="S_E" depart="1285" departLane="random" departSpeed="10.0" />
    <vehicle id="BC_BR_247" type="motorcycle" route="S_E" depart="1285" departLane="random" departSpeed="10.0" />
    <vehicle id="BC_TC_248" type="car" route="S_N" depart="1288" departLane="random" departSpeed="10.0" />
    <vehicle id="BL_BR_249" type="car" route="W_E" depart="1292" departLane="random" departSpeed="10.0" />
    <vehicle id="TR_TC_250" type="bus/city" route="E_N" depart="1293" departLane="random" departSpeed="10.0" />
    <vehicle id="BL_BR_251" type="car" route="W_E" depart="1295" departLane="random" departSpeed="10.0" />
    <vehicle id="BL_BR_252" type="bus/city" route="W_E" depart="1301" departLane="random" departSpeed="10.0" />
    <vehicle id="BC_TC_253" type="motorcycle" route="S_N" depart="1307" departLane="random" departSpeed="10.0" />
    <vehicle id="BC_BR_254" type="car" route="S_E" depart="1308" departLane="random" departSpeed="10.0" />
    <vehicle id="BC_BR_255" type="bus/city" route="S_E" depart="1310" departLane="random" departSpeed="10.0" />
    <vehicle id="TR_TL_256" type="car" route="E_W" depart="1311" departLane="random" departSpeed="10.0" />
    <vehicle id="BC_TL_257" type="motorcycle" route="S_W" depart="1328" departLane="random" departSpeed="10.0" />
    <vehicle id="BC_BR_258" type="bus/city" route="S_E" depart="1328" departLane="random" departSpeed="10.0" />
    <vehicle id="TR_TL_259" type="bus/city" route="E_W" depart="1331" departLane="random" departSpeed="10.0" />
    <vehicle id="BL_BR_260" type="bus/city" route="W_E" depart="1333" departLane="random" departSpeed="10.0" />
    <vehicle id="BL_BR_261" type="bus/city" route="W_E" depart="1339" departLane="random" departSpeed="10.0" />
    <vehicle id="BL_BR_262" type="bus/city" route="W_E" depart="1339" departLane="random" departSpeed="10.0" />
    <vehicle id="BC_TC_263" type="bus/city" route="S_N" depart="1348" departLane="random" departSpeed="10.0" />
    <vehicle id="BC_TL_264" type="motorcycle" route="S_W" depart="1352" departLane="random" departSpeed="10.0" />
    <vehicle id="BL_BR_265" type="bus/city" route="W_E" depart="1358" departLane="random" departSpeed="10.0" />