<?xml version="1.0" encoding="iso-8859-1"?>

<configuration xmlns:xsi="http://www.w3.org/2001/XMLSchema-instance" xsi:noNamespaceSchemaLocation="http://sumo.dlr.de/xsd/sumoConfiguration.xsd">
	<input>
		<net-file value="environment.net.xml"/>
		<route-files value="environment.rou.xml"/>
	</input>
	<time>
		<begin value="0"/>
	</time>
	<!-- disable automatic removal of vehicles -->
	<time-to-teleport value="-1"/>
</configuration>